function mpc = pglib_opf_case2000_ieee
mpc.version = '2';
mpc.baseMVA = 100.0;

%% bus data
%	bus_i	type	Pd	Qd	Gs	Bs	area	Vm	Va	baseKV	zone	Vmax	Vmin
mpc.bus = [
    1	1	0.0000 	0.0000 	0.0000 	0.0000 	1	1.0000 	0.0000 	138	1	1.1000 	0.9000;
    2	1	0.0000 	0.0000 	0.0000 	0.0000 	1	1.0000 	0.0000 	69	1	1.1000 	0.9000;
    3	1	78.7907 	38.1240 	0.0000 	0.0000 	1	1.0000 	0.0000 	138	1	1.1000 	0.9000;
    4	1	49.8409 	3.3584 	0.0000 	0.0000 	1	1.0000 	0.0000 	69	1	1.1000 	0.9000;
    5	1	74.8265 	36.8320 	0.0000 	0.0000 	1	1.0000 	0.0000 	69	1	1.1000 	0.9000;
    6	1	65.7720 	5.3320 	0.0000 	0.0000 	1	1.0000 	0.0000 	69	1	1.1000 	0.9000;
    7	1	70.8370 	15.2361 	0.0000 	0.0000 	1	1.0000 	0.0000 	138	1	1.1000 	0.9000;
    8	1	48.8911 	12.7915 	0.0000 	125.0820 	1	1.0000 	0.0000 	69	1	1.1000 	0.9000;
    9	1	0.0000 	0.0000 	0.0000 	0.0000 	1	1.0000 	0.0000 	138	1	1.1000 	0.9000;
    10	1	0.0000 	0.0000 	0.0000 	0.0000 	1	1.0000 	0.0000 	69	1	1.1000 	0.9000;
    11	1	110.1034 	36.1746 	0.0000 	0.0000 	1	1.0000 	0.0000 	138	1	1.1000 	0.9000;
    12	1	0.0000 	0.0000 	0.0000 	0.0000 	1	1.0000 	0.0000 	138	1	1.1000 	0.9000;
    13	1	103.2711 	22.1167 	0.0000 	0.0000 	1	1.0000 	0.0000 	69	1	1.1000 	0.9000;
    14	1	0.0000 	0.0000 	0.0000 	0.0000 	1	1.0000 	0.0000 	138	1	1.1000 	0.9000;
    15	1	155.1099 	75.3761 	0.0000 	0.0000 	1	1.0000 	0.0000 	138	1	1.1000 	0.9000;
    16	1	72.7054 	14.1119 	0.0000 	0.0000 	1	1.0000 	0.0000 	69	1	1.1000 	0.9000;
    17	1	57.0440 	33.7674 	0.0000 	0.0000 	1	1.0000 	0.0000 	69	1	1.1000 	0.9000;
    18	1	0.0000 	0.0000 	0.0000 	0.0000 	1	1.0000 	0.0000 	69	1	1.1000 	0.9000;
    19	1	20.3163 	2.3021 	0.0000 	0.0000 	1	1.0000 	0.0000 	69	1	1.1000 	0.9000;
    20	1	0.0000 	0.0000 	0.0000 	0.0000 	1	1.0000 	0.0000 	138	1	1.1000 	0.9000;
    21	1	136.1779 	16.6848 	0.0000 	0.0000 	1	1.0000 	0.0000 	69	1	1.1000 	0.9000;
    22	1	0.0000 	0.0000 	0.0000 	0.0000 	1	1.0000 	0.0000 	138	1	1.1000 	0.9000;
    23	1	59.7475 	8.8166 	0.0000 	0.0000 	1	1.0000 	0.0000 	69	1	1.1000 	0.9000;
    24	1	16.5743 	3.6670 	0.0000 	0.0000 	1	1.0000 	0.0000 	69	1	1.1000 	0.9000;
    25	1	20.0129 	2.3902 	0.0000 	0.0000 	1	1.0000 	0.0000 	69	1	1.1000 	0.9000;
    26	1	0.0000 	0.0000 	0.0000 	0.0000 	1	1.0000 	0.0000 	138	1	1.1000 	0.9000;
    27	1	75.2930 	19.9778 	0.0000 	0.0000 	1	1.0000 	0.0000 	69	1	1.1000 	0.9000;
    28	1	0.0000 	0.0000 	0.0000 	0.0000 	1	1.0000 	0.0000 	138	1	1.1000 	0.9000;
    29	1	99.5416 	38.8649 	0.0000 	0.0000 	1	1.0000 	0.0000 	69	1	1.1000 	0.9000;
    30	1	74.3099 	1.6540 	0.0000 	0.0000 	1	1.0000 	0.0000 	138	1	1.1000 	0.9000;
    31	1	0.0000 	0.0000 	0.0000 	0.0000 	1	1.0000 	0.0000 	138	1	1.1000 	0.9000;
    32	1	0.0000 	0.0000 	0.0000 	0.0000 	1	1.0000 	0.0000 	69	1	1.1000 	0.9000;
    33	1	63.9372 	14.7726 	0.0000 	0.0000 	1	1.0000 	0.0000 	138	1	1.1000 	0.9000;
    34	1	68.4653 	18.5388 	0.0000 	0.0000 	1	1.0000 	0.0000 	138	1	1.1000 	0.9000;
    35	1	76.6697 	14.2784 	0.0000 	0.0000 	1	1.0000 	0.0000 	69	1	1.1000 	0.9000;
    36	1	57.5734 	6.4810 	0.0000 	0.0000 	1	1.0000 	0.0000 	69	1	1.1000 	0.9000;
    37	1	89.1090 	10.0709 	0.0000 	0.0000 	1	1.0000 	0.0000 	69	1	1.1000 	0.9000;
    38	1	25.6231 	6.4104 	0.0000 	0.0000 	1	1.0000 	0.0000 	69	1	1.1000 	0.9000;
    39	1	0.0000 	0.0000 	0.0000 	0.0000 	1	1.0000 	0.0000 	138	1	1.1000 	0.9000;
    40	1	70.9894 	39.1664 	0.0000 	0.0000 	1	1.0000 	0.0000 	69	1	1.1000 	0.9000;
    41	1	41.6828 	13.9438 	0.0000 	0.0000 	1	1.0000 	0.0000 	69	1	1.1000 	0.9000;
    42	1	0.0000 	0.0000 	0.0000 	0.0000 	1	1.0000 	0.0000 	138	1	1.1000 	0.9000;
    43	1	0.0000 	0.0000 	0.0000 	0.0000 	1	1.0000 	0.0000 	69	1	1.1000 	0.9000;
    44	1	84.6658 	47.9701 	0.0000 	0.0000 	1	1.0000 	0.0000 	138	1	1.1000 	0.9000;
    45	1	25.5725 	4.7828 	0.0000 	0.0000 	1	1.0000 	0.0000 	69	1	1.1000 	0.9000;
    46	1	26.7627 	5.0335 	0.0000 	0.0000 	1	1.0000 	0.0000 	69	1	1.1000 	0.9000;
    47	1	0.0000 	0.0000 	0.0000 	0.0000 	1	1.0000 	0.0000 	345	1	1.1000 	0.9000;
    48	1	0.0000 	0.0000 	0.0000 	0.0000 	1	1.0000 	0.0000 	138	1	1.1000 	0.9000;
    49	1	0.0000 	0.0000 	0.0000 	0.0000 	1	1.0000 	0.0000 	69	1	1.1000 	0.9000;
    50	1	53.4637 	22.7595 	0.0000 	0.0000 	1	1.0000 	0.0000 	345	1	1.1000 	0.9000;
    51	1	33.5839 	17.3589 	0.0000 	0.0000 	1	1.0000 	0.0000 	69	1	1.1000 	0.9000;
    52	1	0.0000 	0.0000 	0.0000 	0.0000 	1	1.0000 	0.0000 	345	1	1.1000 	0.9000;
    53	1	0.0000 	0.0000 	0.0000 	0.0000 	1	1.0000 	0.0000 	138	1	1.1000 	0.9000;
    54	1	81.7899 	26.3809 	0.0000 	0.0000 	1	1.0000 	0.0000 	345	1	1.1000 	0.9000;
    55	1	0.0000 	0.0000 	0.0000 	0.0000 	1	1.0000 	0.0000 	138	1	1.1000 	0.9000;
    56	1	0.0000 	0.0000 	0.0000 	0.0000 	1	1.0000 	0.0000 	69	1	1.1000 	0.9000;
    57	1	49.2854 	3.6252 	0.0000 	0.0000 	1	1.0000 	0.0000 	138	1	1.1000 	0.9000;
    58	1	36.4080 	14.6801 	0.0000 	0.0000 	1	1.0000 	0.0000 	69	1	1.1000 	0.9000;
    59	1	27.2603 	9.2469 	0.0000 	0.0000 	1	1.0000 	0.0000 	69	1	1.1000 	0.9000;
    60	1	20.1057 	0.6447 	0.0000 	0.0000 	1	1.0000 	0.0000 	69	1	1.1000 	0.9000;
    61	1	10.2443 	3.1164 	0.0000 	0.0000 	1	1.0000 	0.0000 	69	1	1.1000 	0.9000;
    62	1	9.6272 	6.1399 	0.0000 	0.0000 	1	1.0000 	0.0000 	69	1	1.1000 	0.9000;
    63	1	0.0000 	0.0000 	0.0000 	0.0000 	1	1.0000 	0.0000 	138	1	1.1000 	0.9000;
    64	1	0.0000 	0.0000 	0.0000 	0.0000 	1	1.0000 	0.0000 	69	1	1.1000 	0.9000;
    65	1	21.0566 	10.9749 	0.0000 	0.0000 	1	1.0000 	0.0000 	138	1	1.1000 	0.9000;
    66	1	9.8049 	3.7491 	0.0000 	0.0000 	1	1.0000 	0.0000 	69	1	1.1000 	0.9000;
    67	1	0.0000 	0.0000 	0.0000 	0.0000 	1	1.0000 	0.0000 	138	1	1.1000 	0.9000;
    68	1	0.0000 	0.0000 	0.0000 	0.0000 	1	1.0000 	0.0000 	69	1	1.1000 	0.9000;
    69	1	11.9913 	6.3521 	0.0000 	0.0000 	1	1.0000 	0.0000 	138	1	1.1000 	0.9000;
    70	1	9.1450 	0.7805 	0.0000 	0.0000 	1	1.0000 	0.0000 	69	1	1.1000 	0.9000;
    71	1	0.0000 	0.0000 	0.0000 	0.0000 	1	1.0000 	0.0000 	138	1	1.1000 	0.9000;
    72	1	15.0372 	5.0162 	0.0000 	0.0000 	1	1.0000 	0.0000 	69	1	1.1000 	0.9000;
    73	1	0.0000 	0.0000 	0.0000 	0.0000 	1	1.0000 	0.0000 	138	1	1.1000 	0.9000;
    74	1	16.0719 	1.3234 	0.0000 	8.4969 	1	1.0000 	0.0000 	69	1	1.1000 	0.9000;
    75	1	18.6671 	6.0978 	0.0000 	0.0000 	1	1.0000 	0.0000 	69	1	1.1000 	0.9000;
    76	1	0.0000 	0.0000 	0.0000 	0.0000 	1	1.0000 	0.0000 	138	1	1.1000 	0.9000;
    77	1	0.0000 	0.0000 	0.0000 	0.0000 	1	1.0000 	0.0000 	69	1	1.1000 	0.9000;
    78	1	33.0332 	5.8455 	0.0000 	0.0000 	1	1.0000 	0.0000 	138	1	1.1000 	0.9000;
    79	1	0.0000 	0.0000 	0.0000 	0.0000 	1	1.0000 	0.0000 	138	1	1.1000 	0.9000;
    80	1	0.0000 	0.0000 	0.0000 	0.0000 	1	1.0000 	0.0000 	69	1	1.1000 	0.9000;
    81	1	11.0688 	2.0924 	0.0000 	0.0000 	1	1.0000 	0.0000 	138	1	1.1000 	0.9000;
    82	1	9.7404 	0.6424 	0.0000 	0.0000 	1	1.0000 	0.0000 	69	1	1.1000 	0.9000;
    83	1	0.0000 	0.0000 	0.0000 	0.0000 	1	1.0000 	0.0000 	138	1	1.1000 	0.9000;
    84	1	20.1797 	6.4866 	0.0000 	0.0000 	1	1.0000 	0.0000 	138	1	1.1000 	0.9000;
    85	1	0.0000 	0.0000 	0.0000 	0.0000 	1	1.0000 	0.0000 	138	1	1.1000 	0.9000;
    86	1	0.0000 	0.0000 	0.0000 	0.0000 	1	1.0000 	0.0000 	138	1	1.1000 	0.9000;
    87	1	0.0000 	0.0000 	0.0000 	0.0000 	1	1.0000 	0.0000 	69	1	1.1000 	0.9000;
    88	1	65.4834 	15.9201 	0.0000 	0.0000 	1	1.0000 	0.0000 	138	1	1.1000 	0.9000;
    89	1	0.0000 	0.0000 	0.0000 	0.0000 	1	1.0000 	0.0000 	138	1	1.1000 	0.9000;
    90	1	0.0000 	0.0000 	0.0000 	0.0000 	1	1.0000 	0.0000 	69	1	1.1000 	0.9000;
    91	1	79.9238 	12.8332 	0.0000 	0.0000 	1	1.0000 	0.0000 	138	1	1.1000 	0.9000;
    92	1	36.3174 	17.5574 	0.0000 	0.0000 	1	1.0000 	0.0000 	69	1	1.1000 	0.9000;
    93	1	23.1651 	5.4132 	0.0000 	13.0031 	1	1.0000 	0.0000 	69	1	1.1000 	0.9000;
    94	1	24.3595 	4.0918 	0.0000 	0.0000 	1	1.0000 	0.0000 	69	1	1.1000 	0.9000;
    95	1	75.0538 	19.9047 	0.0000 	0.0011 	1	1.0000 	0.0000 	69	1	1.1000 	0.9000;
    96	1	0.0000 	0.0000 	0.0000 	0.0000 	1	1.0000 	0.0000 	345	1	1.1000 	0.9000;
    97	1	0.0000 	0.0000 	0.0000 	0.0000 	1	1.0000 	0.0000 	138	1	1.1000 	0.9000;
    98	1	0.0000 	0.0000 	0.0000 	0.0000 	1	1.0000 	0.0000 	69	1	1.1000 	0.9000;
    99	1	90.6495 	33.6429 	0.0000 	0.0000 	1	1.0000 	0.0000 	138	1	1.1000 	0.9000;
    100	1	0.0000 	0.0000 	0.0000 	0.0000 	1	1.0000 	0.0000 	138	1	1.1000 	0.9000;
    101	1	0.0000 	0.0000 	0.0000 	0.0000 	1	1.0000 	0.0000 	69	1	1.1000 	0.9000;
    102	1	100.2665 	14.6213 	0.0000 	0.0000 	1	1.0000 	0.0000 	138	1	1.1000 	0.9000;
    103	1	53.5802 	2.5065 	0.0000 	0.0000 	1	1.0000 	0.0000 	69	1	1.1000 	0.9000;
    104	1	74.3790 	26.5211 	0.0000 	0.0000 	1	1.0000 	0.0000 	69	1	1.1000 	0.9000;
    105	1	0.0000 	0.0000 	0.0000 	0.0007 	1	1.0000 	0.0000 	345	1	1.1000 	0.9000;
    106	1	0.0000 	0.0000 	0.0000 	0.0000 	1	1.0000 	0.0000 	138	1	1.1000 	0.9000;
    107	1	0.0000 	0.0000 	0.0000 	0.0000 	1	1.0000 	0.0000 	69	1	1.1000 	0.9000;
    108	1	98.7172 	33.6222 	0.0000 	0.0000 	1	1.0000 	0.0000 	345	1	1.1000 	0.9000;
    109	1	53.1253 	14.0195 	0.0000 	0.0000 	1	1.0000 	0.0000 	69	1	1.1000 	0.9000;
    110	1	0.0000 	0.0000 	0.0000 	0.0000 	1	1.0000 	0.0000 	138	1	1.1000 	0.9000;
    111	1	0.0000 	0.0000 	0.0000 	0.0000 	1	1.0000 	0.0000 	69	1	1.1000 	0.9000;
    112	1	87.9058 	20.8016 	0.0000 	0.0000 	1	1.0000 	0.0000 	138	1	1.1000 	0.9000;
    113	1	55.3529 	6.4494 	0.0000 	0.0000 	1	1.0000 	0.0000 	69	1	1.1000 	0.9000;
    114	1	8.3174 	2.3228 	0.0000 	-19.5770 	1	1.0000 	0.0000 	69	1	1.1000 	0.9000;
    115	1	47.8612 	20.4975 	0.0000 	0.0000 	1	1.0000 	0.0000 	69	1	1.1000 	0.9000;
    116	1	17.5550 	3.8567 	0.0000 	0.0000 	1	1.0000 	0.0000 	69	1	1.1000 	0.9000;
    117	1	42.0606 	1.5313 	0.0000 	0.0000 	1	1.0000 	0.0000 	69	1	1.1000 	0.9000;
    118	1	17.6644 	4.1206 	0.0000 	0.0000 	1	1.0000 	0.0000 	69	1	1.1000 	0.9000;
    119	1	53.3614 	14.7194 	0.0000 	0.0000 	1	1.0000 	0.0000 	69	1	1.1000 	0.9000;
    120	1	78.9115 	53.8073 	0.0000 	0.0000 	1	1.0000 	0.0000 	69	1	1.1000 	0.9000;
    121	1	0.0000 	0.0000 	0.0000 	0.0000 	1	1.0000 	0.0000 	138	1	1.1000 	0.9000;
    122	1	0.0000 	0.0000 	0.0000 	0.0000 	1	1.0000 	0.0000 	69	1	1.1000 	0.9000;
    123	1	96.7343 	29.9903 	0.0000 	0.0000 	1	1.0000 	0.0000 	138	1	1.1000 	0.9000;
    124	1	0.0000 	0.0000 	0.0000 	0.0000 	1	1.0000 	0.0000 	138	1	1.1000 	0.9000;
    125	1	0.0000 	0.0000 	0.0000 	0.0000 	1	1.0000 	0.0000 	69	1	1.1000 	0.9000;
    126	1	62.5459 	23.6078 	0.0000 	0.0000 	1	1.0000 	0.0000 	138	1	1.1000 	0.9000;
    127	1	32.1265 	8.0642 	0.0000 	0.0000 	1	1.0000 	0.0000 	69	1	1.1000 	0.9000;
    128	1	38.7802 	9.3330 	0.0000 	0.0003 	1	1.0000 	0.0000 	69	1	1.1000 	0.9000;
    129	1	0.0000 	0.0000 	0.0000 	0.0000 	1	1.0000 	0.0000 	69	1	1.1000 	0.9000;
    130	1	91.2940 	15.3462 	0.0000 	0.0000 	1	1.0000 	0.0000 	69	1	1.1000 	0.9000;
    131	1	51.4276 	27.3615 	0.0000 	168.5700 	1	1.0000 	0.0000 	69	1	1.1000 	0.9000;
    132	1	0.0000 	0.0000 	0.0000 	0.0000 	1	1.0000 	0.0000 	138	1	1.1000 	0.9000;
    133	1	88.7141 	16.2929 	0.0000 	0.0000 	1	1.0000 	0.0000 	69	1	1.1000 	0.9000;
    134	1	0.0000 	0.0000 	0.0000 	0.0000 	1	1.0000 	0.0000 	138	1	1.1000 	0.9000;
    135	1	0.0000 	0.0000 	0.0000 	0.0000 	1	1.0000 	0.0000 	138	1	1.1000 	0.9000;
    136	1	0.0000 	0.0000 	0.0000 	0.0000 	1	1.0000 	0.0000 	69	1	1.1000 	0.9000;
    137	1	168.9538 	21.3821 	0.0000 	0.0000 	1	1.0000 	0.0000 	138	1	1.1000 	0.9000;
    138	1	53.7687 	6.3117 	0.0000 	0.0000 	1	1.0000 	0.0000 	69	1	1.1000 	0.9000;
    139	1	0.0000 	0.0000 	0.0000 	0.0000 	1	1.0000 	0.0000 	138	1	1.1000 	0.9000;
    140	1	122.3608 	73.2510 	0.0000 	0.0000 	1	1.0000 	0.0000 	69	1	1.1000 	0.9000;
    141	1	0.0000 	0.0000 	0.0000 	0.0000 	1	1.0000 	0.0000 	138	1	1.1000 	0.9000;
    142	1	0.0000 	0.0000 	0.0000 	0.0000 	1	1.0000 	0.0000 	138	1	1.1000 	0.9000;
    143	1	0.0000 	0.0000 	0.0000 	0.0000 	1	1.0000 	0.0000 	69	1	1.1000 	0.9000;
    144	1	101.1028 	19.2929 	0.0000 	0.0000 	1	1.0000 	0.0000 	138	1	1.1000 	0.9000;
    145	1	57.2629 	6.6370 	0.0000 	0.0000 	1	1.0000 	0.0000 	69	1	1.1000 	0.9000;
    146	1	49.9663 	10.9590 	0.0000 	0.0000 	1	1.0000 	0.0000 	69	1	1.1000 	0.9000;
    147	1	0.0000 	0.0000 	0.0000 	0.0000 	1	1.0000 	0.0000 	138	1	1.1000 	0.9000;
    148	1	0.0000 	0.0000 	0.0000 	0.0000 	1	1.0000 	0.0000 	69	1	1.1000 	0.9000;
    149	1	86.3935 	20.1939 	0.0000 	0.0000 	1	1.0000 	0.0000 	138	1	1.1000 	0.9000;
    150	1	62.9119 	7.8454 	0.0000 	0.0000 	1	1.0000 	0.0000 	69	1	1.1000 	0.9000;
    151	1	0.0000 	0.0000 	0.0000 	0.0000 	1	1.0000 	0.0000 	138	1	1.1000 	0.9000;
    152	1	0.0000 	0.0000 	0.0000 	0.0000 	1	1.0000 	0.0000 	69	1	1.1000 	0.9000;
    153	1	68.0804 	7.9237 	0.0000 	0.0000 	1	1.0000 	0.0000 	138	1	1.1000 	0.9000;
    154	1	95.3664 	20.1280 	0.0000 	0.0000 	1	1.0000 	0.0000 	69	1	1.1000 	0.9000;
    155	1	60.1730 	2.6702 	0.0000 	0.0000 	1	1.0000 	0.0000 	69	1	1.1000 	0.9000;
    156	1	60.1188 	26.7359 	0.0000 	0.0000 	1	1.0000 	0.0000 	69	1	1.1000 	0.9000;
    157	1	57.0303 	14.9235 	0.0000 	0.0000 	1	1.0000 	0.0000 	138	1	1.1000 	0.9000;
    158	1	89.8182 	21.2898 	0.0000 	0.0000 	1	1.0000 	0.0000 	138	1	1.1000 	0.9000;
    159	1	0.0000 	0.0000 	0.0000 	371.1405 	1	1.0000 	0.0000 	345	1	1.1000 	0.9000;
    160	1	0.0000 	0.0000 	0.0000 	0.0000 	1	1.0000 	0.0000 	138	1	1.1000 	0.9000;
    161	1	0.0000 	0.0000 	0.0000 	0.0000 	1	1.0000 	0.0000 	69	1	1.1000 	0.9000;
    162	1	88.9167 	12.8810 	0.0000 	0.0000 	1	1.0000 	0.0000 	138	1	1.1000 	0.9000;
    163	1	53.7282 	13.0509 	0.0000 	0.0000 	1	1.0000 	0.0000 	69	1	1.1000 	0.9000;
    164	1	34.9609 	9.2920 	0.0000 	0.0000 	1	1.0000 	0.0000 	69	1	1.1000 	0.9000;
    165	1	0.0000 	0.0000 	0.0000 	0.0000 	1	1.0000 	0.0000 	138	1	1.1000 	0.9000;
    166	1	0.0000 	0.0000 	0.0000 	0.0000 	1	1.0000 	0.0000 	69	1	1.1000 	0.9000;
    167	1	170.4322 	103.6860 	0.0000 	0.0000 	1	1.0000 	0.0000 	138	1	1.1000 	0.9000;
    168	1	31.4419 	5.9823 	0.0000 	0.0000 	1	1.0000 	0.0000 	69	1	1.1000 	0.9000;
    169	1	60.0725 	15.9849 	0.0000 	27.4224 	1	1.0000 	0.0000 	69	1	1.1000 	0.9000;
    170	1	0.0000 	0.0000 	0.0000 	0.0000 	1	1.0000 	0.0000 	138	1	1.1000 	0.9000;
    171	1	0.0000 	0.0000 	0.0000 	0.0000 	1	1.0000 	0.0000 	69	1	1.1000 	0.9000;
    172	1	81.2391 	19.1846 	0.0000 	0.0000 	1	1.0000 	0.0000 	138	1	1.1000 	0.9000;
    173	1	62.2656 	32.2366 	0.0000 	61.4829 	1	1.0000 	0.0000 	69	1	1.1000 	0.9000;
    174	1	0.0000 	0.0000 	0.0000 	0.0000 	1	1.0000 	0.0000 	138	1	1.1000 	0.9000;
    175	1	0.0000 	0.0000 	0.0000 	0.0000 	1	1.0000 	0.0000 	69	1	1.1000 	0.9000;
    176	1	84.3216 	9.8924 	0.0000 	0.0000 	1	1.0000 	0.0000 	138	1	1.1000 	0.9000;
    177	1	40.8008 	11.2386 	0.0000 	60.0972 	1	1.0000 	0.0000 	69	1	1.1000 	0.9000;
    178	1	26.8395 	5.9192 	0.0000 	41.5651 	1	1.0000 	0.0000 	69	1	1.1000 	0.9000;
    179	1	53.8745 	6.3174 	0.0000 	0.0000 	1	1.0000 	0.0000 	69	1	1.1000 	0.9000;
    180	1	37.3249 	5.3885 	0.0000 	0.0000 	1	1.0000 	0.0000 	69	1	1.1000 	0.9000;
    181	1	0.0000 	0.0000 	0.0000 	0.0000 	1	1.0000 	0.0000 	138	1	1.1000 	0.9000;
    182	1	0.0000 	0.0000 	0.0000 	0.0000 	1	1.0000 	0.0000 	69	1	1.1000 	0.9000;
    183	1	93.1553 	21.8343 	0.0000 	0.0000 	1	1.0000 	0.0000 	138	1	1.1000 	0.9000;
    184	1	47.9467 	3.3750 	0.0000 	0.0000 	1	1.0000 	0.0000 	69	1	1.1000 	0.9000;
    185	1	34.4089 	5.9239 	0.0000 	0.0000 	1	1.0000 	0.0000 	69	1	1.1000 	0.9000;
    186	1	44.2642 	10.4585 	0.0000 	-63.3799 	1	1.0000 	0.0000 	69	1	1.1000 	0.9000;
    187	1	41.8161 	12.7048 	0.0000 	0.0000 	1	1.0000 	0.0000 	69	1	1.1000 	0.9000;
    188	1	0.0000 	0.0000 	0.0000 	0.0000 	1	1.0000 	0.0000 	138	1	1.1000 	0.9000;
    189	1	0.0000 	0.0000 	0.0000 	0.0000 	1	1.0000 	0.0000 	69	1	1.1000 	0.9000;
    190	1	67.8785 	15.2287 	0.0000 	0.0000 	1	1.0000 	0.0000 	138	1	1.1000 	0.9000;
    191	1	0.0000 	0.0000 	0.0000 	0.0000 	1	1.0000 	0.0000 	138	1	1.1000 	0.9000;
    192	1	63.2544 	27.3804 	0.0000 	0.0000 	1	1.0000 	0.0000 	69	1	1.1000 	0.9000;
    193	1	0.0000 	0.0000 	0.0000 	0.0000 	1	1.0000 	0.0000 	138	1	1.1000 	0.9000;
    194	1	0.0000 	0.0000 	0.0000 	0.0000 	1	1.0000 	0.0000 	138	1	1.1000 	0.9000;
    195	1	0.0000 	0.0000 	0.0000 	0.0000 	1	1.0000 	0.0000 	69	1	1.1000 	0.9000;
    196	1	58.7007 	9.7810 	0.0000 	0.0000 	1	1.0000 	0.0000 	138	1	1.1000 	0.9000;
    197	1	48.8778 	10.8923 	0.0000 	0.0000 	1	1.0000 	0.0000 	69	1	1.1000 	0.9000;
    198	1	0.0000 	0.0000 	0.0000 	0.0000 	1	1.0000 	0.0000 	69	1	1.1000 	0.9000;
    199	1	35.0718 	4.7227 	0.0000 	0.0002 	1	1.0000 	0.0000 	69	1	1.1000 	0.9000;
    200	1	43.8969 	17.3632 	0.0000 	0.0000 	1	1.0000 	0.0000 	69	1	1.1000 	0.9000;
    201	1	48.2025 	10.3900 	0.0000 	0.0000 	1	1.0000 	0.0000 	69	1	1.1000 	0.9000;
    202	1	0.0000 	0.0000 	0.0000 	0.0000 	1	1.0000 	0.0000 	345	1	1.1000 	0.9000;
    203	1	0.0000 	0.0000 	0.0000 	0.0000 	1	1.0000 	0.0000 	138	1	1.1000 	0.9000;
    204	1	87.8912 	42.2607 	0.0000 	0.0000 	1	1.0000 	0.0000 	69	1	1.1000 	0.9000;
    205	1	0.0000 	0.0000 	0.0000 	0.0000 	1	1.0000 	0.0000 	345	1	1.1000 	0.9000;
    206	1	30.9565 	12.7168 	0.0000 	0.0000 	1	1.0000 	0.0000 	69	1	1.1000 	0.9000;
    207	1	0.0000 	0.0000 	0.0000 	847.5204 	1	1.0000 	0.0000 	345	1	1.1000 	0.9000;
    208	1	0.0000 	0.0000 	0.0000 	0.0000 	1	1.0000 	0.0000 	138	1	1.1000 	0.9000;
    209	1	43.0475 	12.6965 	0.0000 	0.0000 	1	1.0000 	0.0000 	69	1	1.1000 	0.9000;
    210	1	0.0000 	0.0000 	0.0000 	0.0000 	1	1.0000 	0.0000 	345	1	1.1000 	0.9000;
    211	1	0.0000 	0.0000 	0.0000 	0.0000 	1	1.0000 	0.0000 	138	1	1.1000 	0.9000;
    212	1	0.0000 	0.0000 	0.0000 	0.0000 	1	1.0000 	0.0000 	69	1	1.1000 	0.9000;
    213	1	60.3269 	23.5658 	0.0000 	0.0000 	1	1.0000 	0.0000 	138	1	1.1000 	0.9000;
    214	1	35.5955 	7.3925 	0.0000 	0.0000 	1	1.0000 	0.0000 	69	1	1.1000 	0.9000;
    215	1	0.0000 	0.0000 	0.0000 	0.0000 	1	1.0000 	0.0000 	138	1	1.1000 	0.9000;
    216	1	0.0000 	0.0000 	0.0000 	0.0000 	1	1.0000 	0.0000 	69	1	1.1000 	0.9000;
    217	1	111.9638 	33.3106 	0.0000 	0.0000 	1	1.0000 	0.0000 	138	1	1.1000 	0.9000;
    218	1	32.4549 	8.1626 	0.0000 	0.0000 	1	1.0000 	0.0000 	69	1	1.1000 	0.9000;
    219	1	27.2562 	16.9524 	0.0000 	0.0000 	1	1.0000 	0.0000 	69	1	1.1000 	0.9000;
    220	1	49.8925 	10.8982 	0.0000 	0.0000 	1	1.0000 	0.0000 	138	1	1.1000 	0.9000;
    221	1	32.8140 	13.0080 	0.0000 	0.0000 	1	1.0000 	0.0000 	69	1	1.1000 	0.9000;
    222	1	0.0000 	0.0000 	0.0000 	0.0000 	1	1.0000 	0.0000 	138	1	1.1000 	0.9000;
    223	1	74.2193 	10.1311 	0.0000 	0.0000 	1	1.0000 	0.0000 	69	1	1.1000 	0.9000;
    224	1	0.0000 	0.0000 	0.0000 	0.0000 	1	1.0000 	0.0000 	138	1	1.1000 	0.9000;
    225	1	130.6882 	37.2926 	0.0000 	0.0000 	1	1.0000 	0.0000 	138	1	1.1000 	0.9000;
    226	1	50.4265 	22.7675 	0.0000 	0.0000 	1	1.0000 	0.0000 	69	1	1.1000 	0.9000;
    227	1	29.0712 	11.0100 	0.0000 	0.0000 	1	1.0000 	0.0000 	69	1	1.1000 	0.9000;
    228	1	0.0000 	0.0000 	0.0000 	0.0000 	1	1.0000 	0.0000 	138	1	1.1000 	0.9000;
    229	1	118.9960 	37.9730 	0.0000 	0.0000 	1	1.0000 	0.0000 	69	1	1.1000 	0.9000;
    230	1	5.4549 	1.5784 	0.0000 	0.0000 	1	1.0000 	0.0000 	69	1	1.1000 	0.9000;
    231	1	0.0000 	0.0000 	0.0000 	0.0000 	1	1.0000 	0.0000 	345	1	1.1000 	0.9000;
    232	1	0.0000 	0.0000 	0.0000 	0.0000 	1	1.0000 	0.0000 	138	1	1.1000 	0.9000;
    233	1	0.0000 	0.0000 	0.0000 	0.0000 	1	1.0000 	0.0000 	69	1	1.1000 	0.9000;
    234	1	56.1067 	6.2969 	0.0000 	0.0000 	1	1.0000 	0.0000 	345	1	1.1000 	0.9000;
    235	1	0.0000 	0.0000 	0.0000 	0.0000 	1	1.0000 	0.0000 	138	1	1.1000 	0.9000;
    236	1	36.7541 	6.8710 	0.0000 	0.0000 	1	1.0000 	0.0000 	69	1	1.1000 	0.9000;
    237	1	48.7970 	12.6822 	0.0000 	0.0000 	1	1.0000 	0.0000 	69	1	1.1000 	0.9000;
    238	1	31.7825 	7.4826 	0.0000 	0.0000 	1	1.0000 	0.0000 	69	1	1.1000 	0.9000;
    239	1	49.5324 	7.4840 	0.0000 	0.0000 	1	1.0000 	0.0000 	69	1	1.1000 	0.9000;
    240	1	0.0000 	0.0000 	0.0000 	0.0000 	1	1.0000 	0.0000 	138	1	1.1000 	0.9000;
    241	1	86.7735 	10.7931 	0.0000 	0.0000 	1	1.0000 	0.0000 	69	1	1.1000 	0.9000;
    242	1	40.3257 	4.3862 	0.0000 	0.0000 	1	1.0000 	0.0000 	69	1	1.1000 	0.9000;
    243	1	0.0000 	0.0000 	0.0000 	0.0000 	1	1.0000 	0.0000 	138	1	1.1000 	0.9000;
    244	1	61.7387 	6.0145 	0.0000 	0.0000 	1	1.0000 	0.0000 	69	1	1.1000 	0.9000;
    245	1	60.6844 	5.8025 	0.0000 	0.0000 	1	1.0000 	0.0000 	69	1	1.1000 	0.9000;
    246	1	72.1482 	40.4890 	0.0000 	0.0000 	1	1.0000 	0.0000 	69	1	1.1000 	0.9000;
    247	1	85.5514 	25.1669 	0.0000 	0.0000 	1	1.0000 	0.0000 	138	1	1.1000 	0.9000;
    248	1	0.0000 	0.0000 	0.0000 	0.0000 	1	1.0000 	0.0000 	138	1	1.1000 	0.9000;
    249	1	0.0000 	0.0000 	0.0000 	0.0000 	1	1.0000 	0.0000 	69	1	1.1000 	0.9000;
    250	1	111.3745 	3.6230 	0.0000 	0.0000 	1	1.0000 	0.0000 	138	1	1.1000 	0.9000;
    251	1	0.0000 	0.0000 	0.0000 	0.0000 	1	1.0000 	0.0000 	138	1	1.1000 	0.9000;
    252	1	0.0000 	0.0000 	0.0000 	0.0000 	1	1.0000 	0.0000 	69	1	1.1000 	0.9000;
    253	1	111.4787 	20.3070 	0.0000 	0.0000 	1	1.0000 	0.0000 	138	1	1.1000 	0.9000;
    254	1	0.0000 	0.0000 	0.0000 	0.0000 	1	1.0000 	0.0000 	138	1	1.1000 	0.9000;
    255	1	74.9272 	2.6087 	0.0000 	0.0000 	1	1.0000 	0.0000 	69	1	1.1000 	0.9000;
    256	1	0.0000 	0.0000 	0.0000 	0.0000 	1	1.0000 	0.0000 	138	1	1.1000 	0.9000;
    257	1	0.0000 	0.0000 	0.0000 	0.0000 	1	1.0000 	0.0000 	345	1	1.1000 	0.9000;
    258	1	0.0000 	0.0000 	0.0000 	0.0000 	1	1.0000 	0.0000 	138	1	1.1000 	0.9000;
    259	1	77.1517 	22.7546 	0.0000 	0.0000 	1	1.0000 	0.0000 	345	1	1.1000 	0.9000;
    260	1	65.0627 	18.0269 	0.0000 	0.0000 	1	1.0000 	0.0000 	69	1	1.1000 	0.9000;
    261	1	0.0000 	0.0000 	0.0000 	0.0000 	1	1.0000 	0.0000 	138	1	1.1000 	0.9000;
    262	1	72.6856 	43.8898 	0.0000 	0.0000 	1	1.0000 	0.0000 	69	1	1.1000 	0.9000;
    263	1	35.5562 	12.5508 	0.0000 	0.0000 	1	1.0000 	0.0000 	69	1	1.1000 	0.9000;
    264	1	0.0000 	0.0000 	0.0000 	0.0000 	1	1.0000 	0.0000 	138	1	1.1000 	0.9000;
    265	1	101.4781 	27.4903 	0.0000 	0.0000 	1	1.0000 	0.0000 	69	1	1.1000 	0.9000;
    266	1	0.0000 	0.0000 	0.0000 	0.0000 	1	1.0000 	0.0000 	138	1	1.1000 	0.9000;
    267	1	62.2040 	20.6690 	0.0000 	0.0000 	1	1.0000 	0.0000 	69	1	1.1000 	0.9000;
    268	1	0.0000 	0.0000 	0.0000 	0.0000 	1	1.0000 	0.0000 	138	1	1.1000 	0.9000;
    269	1	0.0000 	0.0000 	0.0000 	0.0000 	1	1.0000 	0.0000 	69	1	1.1000 	0.9000;
    270	1	80.3281 	20.2866 	0.0000 	0.0000 	1	1.0000 	0.0000 	138	1	1.1000 	0.9000;
    271	1	58.6163 	16.4307 	0.0000 	0.0000 	1	1.0000 	0.0000 	69	1	1.1000 	0.9000;
    272	1	0.0000 	0.0000 	0.0000 	0.0000 	1	1.0000 	0.0000 	138	1	1.1000 	0.9000;
    273	1	0.0000 	0.0000 	0.0000 	0.0000 	1	1.0000 	0.0000 	69	1	1.1000 	0.9000;
    274	1	76.0416 	20.4997 	0.0000 	0.0000 	1	1.0000 	0.0000 	138	1	1.1000 	0.9000;
    275	1	31.0202 	10.6944 	0.0000 	0.0000 	1	1.0000 	0.0000 	69	1	1.1000 	0.9000;
    276	1	30.6695 	9.7604 	0.0000 	0.0000 	1	1.0000 	0.0000 	69	1	1.1000 	0.9000;
    277	1	16.3963 	1.7104 	0.0000 	0.0000 	1	1.0000 	0.0000 	69	1	1.1000 	0.9000;
    278	1	0.0000 	0.0000 	0.0000 	0.0000 	1	1.0000 	0.0000 	345	1	1.1000 	0.9000;
    279	1	0.0000 	0.0000 	0.0000 	0.0000 	1	1.0000 	0.0000 	138	1	1.1000 	0.9000;
    280	1	0.0000 	0.0000 	0.0000 	0.0000 	1	1.0000 	0.0000 	69	1	1.1000 	0.9000;
    281	1	47.2826 	16.5488 	0.0000 	0.0000 	1	1.0000 	0.0000 	138	1	1.1000 	0.9000;
    282	1	14.2599 	4.3919 	0.0000 	0.0000 	1	1.0000 	0.0000 	69	1	1.1000 	0.9000;
    283	1	21.5553 	7.1696 	0.0000 	0.0000 	1	1.0000 	0.0000 	69	1	1.1000 	0.9000;
    284	1	0.0000 	0.0000 	0.0000 	0.0000 	1	1.0000 	0.0000 	69	1	1.1000 	0.9000;
    285	1	35.5249 	3.6699 	0.0000 	0.0000 	1	1.0000 	0.0000 	69	1	1.1000 	0.9000;
    286	1	62.1513 	21.6557 	0.0000 	0.0000 	1	1.0000 	0.0000 	69	1	1.1000 	0.9000;
    287	1	94.4942 	13.9062 	0.0000 	0.0000 	1	1.0000 	0.0000 	138	1	1.1000 	0.9000;
    288	1	46.3966 	8.1001 	0.0000 	0.0000 	1	1.0000 	0.0000 	69	1	1.1000 	0.9000;
    289	1	0.0000 	0.0000 	0.0000 	0.0000 	1	1.0000 	0.0000 	138	1	1.1000 	0.9000;
    290	1	46.3974 	3.2931 	0.0000 	0.0000 	1	1.0000 	0.0000 	69	1	1.1000 	0.9000;
    291	1	0.0000 	0.0000 	0.0000 	0.0000 	1	1.0000 	0.0000 	138	1	1.1000 	0.9000;
    292	1	0.0000 	0.0000 	0.0000 	0.0000 	1	1.0000 	0.0000 	138	1	1.1000 	0.9000;
    293	1	0.0000 	0.0000 	0.0000 	0.0000 	1	1.0000 	0.0000 	69	1	1.1000 	0.9000;
    294	1	36.1380 	2.8304 	0.0000 	0.0000 	1	1.0000 	0.0000 	138	1	1.1000 	0.9000;
    295	1	69.5865 	24.8541 	0.0000 	0.0000 	1	1.0000 	0.0000 	138	1	1.1000 	0.9000;
    296	1	0.0000 	0.0000 	0.0000 	0.0000 	1	1.0000 	0.0000 	138	1	1.1000 	0.9000;
    297	1	0.0000 	0.0000 	0.0000 	0.0000 	1	1.0000 	0.0000 	69	1	1.1000 	0.9000;
    298	1	77.6492 	21.0047 	0.0000 	0.0000 	1	1.0000 	0.0000 	138	1	1.1000 	0.9000;
    299	1	49.1258 	17.5145 	0.0000 	0.0003 	1	1.0000 	0.0000 	69	1	1.1000 	0.9000;
    300	1	80.3232 	10.7971 	0.0000 	0.0000 	1	1.0000 	0.0000 	138	1	1.1000 	0.9000;
    301	1	36.3273 	11.7717 	0.0000 	0.0000 	1	1.0000 	0.0000 	69	1	1.1000 	0.9000;
    302	1	34.5805 	7.8326 	0.0000 	0.0000 	1	1.0000 	0.0000 	138	1	1.1000 	0.9000;
    303	1	21.8436 	11.2395 	0.0000 	0.0000 	1	1.0000 	0.0000 	69	1	1.1000 	0.9000;
    304	1	0.0000 	0.0000 	0.0000 	0.0000 	1	1.0000 	0.0000 	138	1	1.1000 	0.9000;
    305	1	15.0077 	0.5622 	0.0000 	0.0000 	1	1.0000 	0.0000 	69	1	1.1000 	0.9000;
    306	1	25.7381 	1.7562 	0.0000 	0.0000 	1	1.0000 	0.0000 	138	1	1.1000 	0.9000;
    307	1	37.3242 	7.6009 	0.0000 	16.6864 	1	1.0000 	0.0000 	69	1	1.1000 	0.9000;
    308	1	60.7096 	3.9574 	0.0000 	0.0000 	1	1.0000 	0.0000 	138	1	1.1000 	0.9000;
    309	1	0.0000 	0.0000 	0.0000 	0.0000 	1	1.0000 	0.0000 	138	1	1.1000 	0.9000;
    310	1	0.0000 	0.0000 	0.0000 	0.0000 	1	1.0000 	0.0000 	69	1	1.1000 	0.9000;
    311	1	76.4554 	22.5934 	0.0000 	0.0000 	1	1.0000 	0.0000 	138	1	1.1000 	0.9000;
    312	1	0.0000 	0.0000 	0.0000 	0.0000 	1	1.0000 	0.0000 	345	1	1.1000 	0.9000;
    313	1	0.0000 	0.0000 	0.0000 	0.0000 	1	1.0000 	0.0000 	138	1	1.1000 	0.9000;
    314	1	0.0000 	0.0000 	0.0000 	0.0000 	1	1.0000 	0.0000 	69	1	1.1000 	0.9000;
    315	1	80.3552 	30.0989 	0.0000 	0.0000 	1	1.0000 	0.0000 	138	1	1.1000 	0.9000;
    316	1	0.0000 	0.0000 	0.0000 	0.0000 	1	1.0000 	0.0000 	345	1	1.1000 	0.9000;
    317	1	0.0000 	0.0000 	0.0000 	0.0000 	1	1.0000 	0.0000 	138	1	1.1000 	0.9000;
    318	1	51.1527 	13.3932 	0.0000 	0.0000 	1	1.0000 	0.0000 	69	1	1.1000 	0.9000;
    319	1	0.0000 	0.0000 	0.0000 	0.0000 	1	1.0000 	0.0000 	138	1	1.1000 	0.9000;
    320	1	61.3046 	20.1148 	0.0000 	0.0000 	1	1.0000 	0.0000 	69	1	1.1000 	0.9000;
    321	1	37.2424 	16.4980 	0.0000 	27.5534 	1	1.0000 	0.0000 	69	1	1.1000 	0.9000;
    322	1	0.0000 	0.0000 	0.0000 	0.0000 	1	1.0000 	0.0000 	138	1	1.1000 	0.9000;
    323	1	0.0000 	0.0000 	0.0000 	0.0000 	1	1.0000 	0.0000 	69	1	1.1000 	0.9000;
    324	1	39.5201 	14.9485 	0.0000 	0.0000 	1	1.0000 	0.0000 	138	1	1.1000 	0.9000;
    325	1	0.0000 	0.0000 	0.0000 	0.0000 	1	1.0000 	0.0000 	138	1	1.1000 	0.9000;
    326	1	0.0000 	0.0000 	0.0000 	0.0000 	1	1.0000 	0.0000 	69	1	1.1000 	0.9000;
    327	1	41.3783 	4.6012 	0.0000 	0.0000 	1	1.0000 	0.0000 	138	1	1.1000 	0.9000;
    328	1	10.9173 	1.0515 	0.0000 	0.0000 	1	1.0000 	0.0000 	69	1	1.1000 	0.9000;
    329	1	11.1254 	1.7415 	0.0000 	0.1677 	1	1.0000 	0.0000 	69	1	1.1000 	0.9000;
    330	1	41.7660 	7.1564 	0.0000 	0.0000 	1	1.0000 	0.0000 	69	1	1.1000 	0.9000;
    331	1	0.0000 	0.0000 	0.0000 	0.0000 	1	1.0000 	0.0000 	138	1	1.1000 	0.9000;
    332	1	0.0000 	0.0000 	0.0000 	0.0000 	1	1.0000 	0.0000 	69	1	1.1000 	0.9000;
    333	1	64.9664 	8.5683 	0.0000 	0.0000 	1	1.0000 	0.0000 	138	1	1.1000 	0.9000;
    334	1	0.0000 	0.0000 	0.0000 	0.0000 	1	1.0000 	0.0000 	138	1	1.1000 	0.9000;
    335	1	0.0000 	0.0000 	0.0000 	0.0000 	1	1.0000 	0.0000 	69	1	1.1000 	0.9000;
    336	1	96.2611 	11.1579 	0.0000 	0.0000 	1	1.0000 	0.0000 	138	1	1.1000 	0.9000;
    337	1	0.0000 	0.0000 	0.0000 	0.0000 	1	1.0000 	0.0000 	345	1	1.1000 	0.9000;
    338	1	79.8421 	9.9332 	0.0000 	0.0000 	1	1.0000 	0.0000 	138	1	1.1000 	0.9000;
    339	1	61.2956 	10.4704 	0.0000 	0.0000 	1	1.0000 	0.0000 	138	1	1.1000 	0.9000;
    340	1	62.4965 	20.6189 	0.0000 	0.0000 	1	1.0000 	0.0000 	138	1	1.1000 	0.9000;
    341	1	44.9865 	6.9341 	0.0000 	0.0000 	1	1.0000 	0.0000 	69	1	1.1000 	0.9000;
    342	1	0.0000 	0.0000 	0.0000 	0.0000 	1	1.0000 	0.0000 	138	1	1.1000 	0.9000;
    343	1	0.0000 	0.0000 	0.0000 	0.0000 	1	1.0000 	0.0000 	69	1	1.1000 	0.9000;
    344	1	56.2091 	20.4114 	0.0000 	0.0000 	1	1.0000 	0.0000 	138	1	1.1000 	0.9000;
    345	1	11.0471 	3.7814 	0.0000 	0.0000 	1	1.0000 	0.0000 	69	1	1.1000 	0.9000;
    346	1	12.1823 	2.6237 	0.0000 	0.0000 	1	1.0000 	0.0000 	69	1	1.1000 	0.9000;
    347	1	21.1731 	6.9303 	0.0000 	0.0000 	1	1.0000 	0.0000 	138	1	1.1000 	0.9000;
    348	1	0.0000 	0.0000 	0.0000 	0.0000 	1	1.0000 	0.0000 	138	1	1.1000 	0.9000;
    349	1	0.0000 	0.0000 	0.0000 	0.0000 	1	1.0000 	0.0000 	69	1	1.1000 	0.9000;
    350	1	86.4950 	26.6898 	0.0000 	0.0000 	1	1.0000 	0.0000 	138	1	1.1000 	0.9000;
    351	1	56.9956 	9.3973 	0.0000 	0.0000 	1	1.0000 	0.0000 	69	1	1.1000 	0.9000;
    352	1	23.9190 	6.0143 	0.0000 	0.0000 	1	1.0000 	0.0000 	69	1	1.1000 	0.9000;
    353	1	23.6551 	12.0363 	0.0000 	0.0000 	1	1.0000 	0.0000 	69	1	1.1000 	0.9000;
    354	1	39.9571 	13.3676 	0.0000 	-26.2339 	1	1.0000 	0.0000 	69	1	1.1000 	0.9000;
    355	1	23.4080 	3.4840 	0.0000 	0.0000 	1	1.0000 	0.0000 	69	1	1.1000 	0.9000;
    356	1	53.7645 	16.0663 	0.0000 	51.8361 	1	1.0000 	0.0000 	69	1	1.1000 	0.9000;
    357	1	65.8551 	56.1187 	0.0000 	0.0000 	1	1.0000 	0.0000 	138	1	1.1000 	0.9000;
    358	1	62.3465 	9.4361 	0.0000 	-25.3899 	1	1.0000 	0.0000 	69	1	1.1000 	0.9000;