function mpc = pglib_opf_case300_ieee
mpc.version = '2';
mpc.baseMVA = 100.0;

%% bus data
%	bus_i	type	Pd	Qd	Gs	Bs	area	Vm	Va	baseKV	zone	Vmax	Vmin
mpc.bus = [
    1	1	63.0 	34.3 	0.0 	0.0 	1	1.0000 	0.0000 	115.0 	1	1.0600 	0.9400;
    2	1	39.2 	10.5 	0.0 	0.0 	1	1.0000 	0.0000 	115.0 	1	1.0600 	0.9400;
    3	1	14.0 	0.0 	0.0 	0.0 	1	1.0000 	0.0000 	230.0 	1	1.0600 	0.9400;
    4	1	0.0 	0.0 	0.0 	0.0 	1	1.0000 	0.0000 	345.0 	1	1.0600 	0.9400;
    5	1	247.1 	91.0 	0.0 	0.0 	1	1.0000 	0.0000 	115.0 	1	1.0600 	0.9400;
    6	1	84.0 	28.7 	0.0 	0.0 	1	1.0000 	0.0000 	115.0 	1	1.0600 	0.9400;
    7	1	0.0 	0.0 	0.0 	0.0 	1	1.0000 	0.0000 	230.0 	1	1.0600 	0.9400;
    8	2	44.1 	9.8 	0.0 	0.0 	1	1.0000 	0.0000 	115.0 	1	1.0600 	0.9400;
    9	1	67.2 	30.1 	0.0 	0.0 	1	1.0000 	0.0000 	115.0 	1	1.0600 	0.9400;
    10	2	107.1 	23.1 	0.0 	0.0 	1	1.0000 	0.0000 	230.0 	1	1.0600 	0.9400;
    11	1	58.1 	14.7 	0.0 	0.0 	1	1.0000 	0.0000 	115.0 	1	1.0600 	0.9400;
    12	1	0.0 	0.0 	0.0 	0.0 	1	1.0000 	0.0000 	230.0 	1	1.0600 	0.9400;
    13	1	40.6 	7.0 	0.0 	0.0 	1	1.0000 	0.0000 	115.0 	1	1.0600 	0.9400;
    14	1	112.0 	42.0 	0.0 	0.0 	1	1.0000 	0.0000 	115.0 	1	1.0600 	0.9400;
    15	1	88.7 	16.1 	0.0 	0.0 	1	1.0000 	0.0000 	115.0 	1	1.0600 	0.9400;
    16	1	0.0 	0.0 	0.0 	0.0 	1	1.0000 	0.0000 	345.0 	1	1.0600 	0.9400;
    17	1	392.7 	154.0 	0.0 	0.0 	1	1.0000 	0.0000 	115.0 	1	1.0600 	0.9400;
    18	1	0.0 	0.0 	0.0 	0.0 	1	1.0000 	0.0000 	230.0 	1	1.0600 	0.9400;
    19	2	423.5 	84.0 	0.0 	0.0 	1	1.0000 	0.0000 	115.0 	1	1.0600 	0.9400;
    20	1	53.9 	0.7 	0.0 	0.0 	1	1.0000 	0.0000 	230.0 	1	1.0600 	0.9400;
    21	1	56.7 	16.1 	0.0 	0.0 	1	1.0000 	0.0000 	115.0 	1	1.0600 	0.9400;
    22	1	14.7 	4.9 	0.0 	0.0 	1	1.0000 	0.0000 	115.0 	1	1.0600 	0.9400;
    23	1	0.0 	0.0 	0.0 	0.0 	1	1.0000 	0.0000 	230.0 	1	1.0600 	0.9400;
    24	1	31.5 	8.4 	0.0 	0.0 	1	1.0000 	0.0000 	115.0 	1	1.0600 	0.9400;
    25	1	19.6 	6.3 	0.0 	0.0 	1	1.0000 	0.0000 	115.0 	1	1.0600 	0.9400;
    26	1	48.3 	9.1 	0.0 	0.0 	1	1.0000 	0.0000 	115.0 	1	1.0600 	0.9400;
    27	1	38.5 	4.2 	0.0 	0.0 	1	1.0000 	0.0000 	115.0 	1	1.0600 	0.9400;
    28	1	0.0 	0.0 	0.0 	0.0 	1	1.0000 	0.0000 	345.0 	1	1.0600 	0.9400;
    29	1	0.0 	0.0 	0.0 	0.0 	1	1.0000 	0.0000 	115.0 	1	1.0600 	0.9400;
    30	1	0.0 	0.0 	0.0 	0.0 	1	1.0000 	0.0000 	230.0 	1	1.0600 	0.9400;
    31	1	59.5 	22.4 	0.0 	0.0 	1	1.0000 	0.0000 	115.0 	1	1.0600 	0.9400;
    32	1	108.5 	12.6 	0.0 	0.0 	1	1.0000 	0.0000 	115.0 	1	1.0600 	0.9400;
    33	1	0.0 	0.0 	0.0 	0.0 	1	1.0000 	0.0000 	345.0 	1	1.0600 	0.9400;
    34	1	32.2 	-14.7 	0.0 	0.0 	1	1.0000 	0.0000 	115.0 	1	1.0600 	0.9400;
    35	1	60.2 	0.0 	0.0 	0.0 	1	1.0000 	0.0000 	115.0 	1	1.0600 	0.9400;
    36	1	0.0 	0.0 	0.0 	0.0 	1	1.0000 	0.0000 	345.0 	1	1.0600 	0.9400;
    37	1	27.3 	6.3 	0.0 	0.0 	1	1.0000 	0.0000 	115.0 	1	1.0600 	0.9400;
    38	1	136.5 	20.3 	0.0 	0.0 	1	1.0000 	0.0000 	115.0 	1	1.0600 	0.9400;
    39	1	0.0 	0.0 	0.0 	0.0 	1	1.0000 	0.0000 	230.0 	1	1.0600 	0.9400;
    40	1	0.0 	0.0 	0.0 	0.0 	1	1.0000 	0.0000 	345.0 	1	1.0600 	0.9400;
    41	1	40.6 	8.3 	0.0 	0.0 	1	1.0000 	0.0000 	115.0 	1	1.0600 	0.9400;
    42	1	28.7 	13.3 	0.0 	0.0 	1	1.0000 	0.0000 	115.0 	1	1.0600 	0.9400;
    43	1	64.4 	18.2 	0.0 	0.0 	1	1.0000 	0.0000 	115.0 	1	1.0600 	0.9400;
    44	1	-3.5 	3.5 	0.0 	0.0 	1	1.0000 	0.0000 	115.0 	1	1.0600 	0.9400;
    45	1	42.7 	19.6 	0.0 	0.0 	1	1.0000 	0.0000 	115.0 	1	1.0600 	0.9400;
    46	1	48.3 	2.1 	0.0 	0.0 	1	1.0000 	0.0000 	115.0 	1	1.0600 	0.9400;
    47	1	7.0 	0.7 	0.0 	0.0 	1	1.0000 	0.0000 	115.0 	1	1.0600 	0.9400;
    48	1	15.4 	7.0 	0.0 	0.0 	1	1.0000 	0.0000 	115.0 	1	1.0600 	0.9400;
    49	1	68.6 	14.0 	0.0 	0.0 	1	1.0000 	0.0000 	115.0 	1	1.0600 	0.9400;
    50	1	9.8 	0.7 	0.0 	0.0 	1	1.0000 	0.0000 	115.0 	1	1.0600 	0.9400;
    51	1	152.6 	74.2 	0.0 	0.0 	1	1.0000 	0.0000 	115.0 	1	1.0600 	0.9400;
    52	1	0.0 	0.0 	0.0 	0.0 	1	1.0000 	0.0000 	230.0 	1	1.0600 	0.9400;
    53	1	158.9 	77.0 	0.0 	0.0 	1	1.0000 	0.0000 	115.0 	1	1.0600 	0.9400;
    54	1	0.0 	0.0 	0.0 	0.0 	1	1.0000 	0.0000 	230.0 	1	1.0600 	0.9400;
    55	2	49.0 	21.0 	0.0 	0.0 	1	1.0000 	0.0000 	115.0 	1	1.0600 	0.9400;
    56	1	0.0 	0.0 	0.0 	0.0 	1	1.0000 	0.0000 	230.0 	1	1.0600 	0.9400;
    57	1	0.0 	0.0 	0.0 	0.0 	1	1.0000 	0.0000 	115.0 	1	1.0600 	0.9400;
    58	1	39.2 	14.0 	0.0 	0.0 	1	1.0000 	0.0000 	115.0 	1	1.0600 	0.9400;
    59	1	81.2 	26.6 	0.0 	0.0 	1	1.0000 	0.0000 	115.0 	1	1.0600 	0.9400;
    60	1	39.9 	13.3 	0.0 	0.0 	1	1.0000 	0.0000 	115.0 	1	1.0600 	0.9400;
    61	1	156.8 	49.7 	0.0 	0.0 	1	1.0000 	0.0000 	115.0 	1	1.0600 	0.9400;
    62	1	0.0 	0.0 	0.0 	0.0 	1	1.0000 	0.0000 	230.0 	1	1.0600 	0.9400;
    63	2	145.6 	74.9 	0.0 	0.0 	1	1.0000 	0.0000 	115.0 	1	1.0600 	0.9400;
    64	1	51.8 	19.6 	0.0 	0.0 	1	1.0000 	0.0000 	115.0 	1	1.0600 	0.9400;
    65	1	0.0 	0.0 	0.0 	0.0 	1	1.0000 	0.0000 	115.0 	1	1.0600 	0.9400;
    66	1	33.6 	9.8 	0.0 	0.0 	1	1.0000 	0.0000 	115.0 	1	1.0600 	0.9400;
    67	1	19.6 	4.9 	0.0 	0.0 	1	1.0000 	0.0000 	115.0 	1	1.0600 	0.9400;
    68	1	0.0 	0.0 	0.0 	0.0 	1	1.0000 	0.0000 	345.0 	1	1.0600 	0.9400;
    69	2	25.9 	9.1 	0.0 	0.0 	1	1.0000 	0.0000 	115.0 	1	1.0600 	0.9400;
    70	1	0.0 	0.0 	0.0 	0.0 	1	1.0000 	0.0000 	230.0 	1	1.0600 	0.9400;
    71	1	0.0 	0.0 	0.0 	0.0 	1	1.0000 	0.0000 	230.0 	1	1.0600 	0.9400;
    72	1	0.0 	0.0 	0.0 	0.0 	1	1.0000 	0.0000 	230.0 	1	1.0600 	0.9400;
    73	1	0.0 	0.0 	0.0 	0.0 	1	1.0000 	0.0000 	230.0 	1	1.0600 	0.9400;
    74	1	30.9 	0.0 	0.0 	0.0 	1	1.0000 	0.0000 	115.0 	1	1.0600 	0.9400;
    75	1	46.2 	0.0 	0.0 	0.0 	1	1.0000 	0.0000 	115.0 	1	1.0600 	0.9400;
    76	2	12.2 	0.0 	0.0 	0.0 	1	1.0000 	0.0000 	115.0 	1	1.0600 	0.9400;
    77	2	11.1 	0.0 	0.0 	0.0 	1	1.0000 	0.0000 	115.0 	1	1.0600 	0.9400;
    78	1	42.2 	0.0 	0.0 	0.0 	1	1.0000 	0.0000 	115.0 	1	1.0600 	0.9400;
    79	1	27.9 	0.0 	0.0 	0.0 	1	1.0000 	0.0000 	115.0 	1	1.0600 	0.9400;
    80	2	46.7 	0.0 	0.0 	0.0 	1	1.0000 	0.0000 	115.0 	1	1.0600 	0.9400;
    81	1	58.5 	0.0 	0.0 	0.0 	1	1.0000 	0.0000 	115.0 	1	1.0600 	0.9400;
    82	1	0.0 	0.0 	0.0 	0.0 	1	1.0000 	0.0000 	115.0 	1	1.0600 	0.9400;
    83	1	54.5 	0.0 	0.0 	0.0 	1	1.0000 	0.0000 	115.0 	1	1.0600 	0.9400;
    84	1	22.4 	0.0 	0.0 	0.0 	1	1.0000 	0.0000 	115.0 	1	1.0600 	0.9400;
    85	1	6.0 	0.0 	0.0 	0.0 	1	1.0000 	0.0000 	115.0 	1	1.0600 	0.9400;
    86	1	34.7 	0.0 	0.0 	0.0 	1	1.0000 	0.0000 	115.0 	1	1.0600 	0.9400;
    87	1	3.2 	0.0 	0.0 	0.0 	1	1.0000 	0.0000 	115.0 	1	1.0600 	0.9400;
    88	2	78.5 	0.0 	0.0 	0.0 	1	1.0000 	0.0000 	115.0 	1	1.0600 	0.9400;
    89	1	21.5 	0.0 	0.0 	0.0 	1	1.0000 	0.0000 	115.0 	1	1.0600 	0.9400;
    90	1	44.1 	0.0 	0.0 	0.0 	1	1.0000 	0.0000 	115.0 	1	1.0600 	0.9400;
    91	1	13.7 	0.0 	0.0 	0.0 	1	1.0000 	0.0000 	115.0 	1	1.0600 	0.9400;
    92	1	18.3 	0.0 	0.0 	0.0 	1	1.0000 	0.0000 	115.0 	1	1.0600 	0.9400;
    93	1	12.7 	0.0 	0.0 	0.0 	1	1.0000 	0.0000 	115.0 	1	1.0600 	0.9400;
    94	1	0.0 	0.0 	0.0 	0.0 	1	1.0000 	0.0000 	115.0 	2	1.0600 	0.9400;
    95	1	0.0 	0.0 	0.0 	0.0 	1	1.0000 	0.0000 	115.0 	2	1.0600 	0.9400;
    96	1	0.0 	0.0 	0.0 	325.0 	1	1.0000 	0.0000 	115.0 	2	1.0600 	0.9400;
    97	1	9.9 	455.0 	0.0 	0.0 	1	1.0000 	0.0000 	115.0 	2	1.0600 	0.9400;
    98	2	0.0 	0.0 	0.0 	0.0 	1	1.0000 	0.0000 	115.0 	2	1.0600 	0.9400;
    99	1	543.9 	150.5 	0.0 	55.0 	1	1.0000 	0.0000 	115.0 	2	1.0600 	0.9400;
    100	1	374.5 	38.5 	0.0 	0.0 	1	1.0000 	0.0000 	115.0 	2	1.0600 	0.9400;
    101	1	160.4 	8.3 	0.0 	0.0 	1	1.0000 	0.0000 	115.0 	2	1.0600 	0.9400;
    102	1	54.6 	1.0 	0.0 	0.0 	1	1.0000 	0.0000 	115.0 	2	1.0600 	0.9400;
    103	2	193.5 	41.5 	0.0 	0.0 	1	1.0000 	0.0000 	115.0 	2	1.0600 	0.9400;
    104	2	360.4 	57.9 	0.0 	0.0 	1	1.0000 	0.0000 	115.0 	2	1.0600 	0.9400;
    105	1	40.5 	3.6 	0.0 	0.0 	1	1.0000 	0.0000 	115.0 	2	1.0600 	0.9400;
    106	1	266.6 	25.9 	0.0 	0.0 	1	1.0000 	0.0000 	230.0 	2	1.0600 	0.9400;
    107	1	0.0 	0.0 	0.0 	0.0 	1	1.0000 	0.0000 	230.0 	2	1.0600 	0.9400;
    108	1	0.0 	0.0 	0.0 	0.0 	1	1.0000 	0.0000 	230.0 	2	1.0600 	0.9400;
    109	1	0.0 	0.0 	0.0 	0.0 	1	1.0000 	0.0000 	230.0 	2	1.0600 	0.9400;
    110	1	0.0 	0.0 	0.0 	0.0 	1	1.0000 	0.0000 	230.0 	2	1.0600 	0.9400;
    111	1	0.0 	0.0 	0.0 	0.0 	1	1.0000 	0.0000 	230.0 	2	1.0600 	0.9400;
    112	1	0.0 	0.0 	0.0 	0.0 	1	1.0000 	0.0000 	230.0 	2	1.0600 	0.9400;
    113	1	0.0 	0.0 	0.0 	0.0 	1	1.0000 	0.0000 	230.0 	2	1.0600 	0.9400;
    114	1	118.4 	29.1 	0.0 	0.0 	1	1.0000 	0.0000 	230.0 	2	1.0600 	0.9400;
    115	1	38.6 	12.7 	0.0 	0.0 	1	1.0000 	0.0000 	230.0 	2	1.0600 	0.9400;
    116	1	191.5 	69.9 	0.0 	0.0 	1	1.0000 	0.0000 	230.0 	2	1.0600 	0.9400;
    117	2	713.4 	94.6 	0.0 	0.0 	1	1.0000 	0.0000 	230.0 	2	1.0600 	0.9400;
    118	1	416.5 	58.3 	0.0 	0.0 	1	1.0000 	0.0000 	115.0 	2	1.0600 	0.9400;
    119	1	271.4 	80.3 	0.0 	0.0 	1	1.0000 	0.0000 	230.0 	2	1.0600 	0.9400;
    120	2	101.5 	40.6 	0.0 	0.0 	1	1.0000 	0.0000 	230.0 	2	1.0600 	0.9400;
    121	1	39.6 	17.2 	0.0 	0.0 	1	1.0000 	0.0000 	230.0 	2	1.0600 	0.9400;
    122	2	62.7 	24.9 	0.0 	0.0 	1	1.0000 	0.0000 	230.0 	2	1.0600 	0.9400;
    123	1	0.0 	0.0 	0.0 	0.0 	1	1.0000 	0.0000 	230.0 	2	1.0600 	0.9400;
    124	1	16.8 	9.8 	0.0 	0.0 	1	1.0000 	0.0000 	230.0 	2	1.0600 	0.9400;
    125	2	0.0 	0.0 	0.0 	0.0 	1	1.0000 	0.0000 	230.0 	2	1.0600 	0.9400;
    126	2	0.0 	0.0 	0.0 	0.0 	1	1.0000 	0.0000 	230.0 	2	1.0600 	0.9400;
    127	1	44.1 	17.5 	0.0 	0.0 	1	1.0000 	0.0000 	230.0 	2	1.0600 	0.9400;
    128	2	0.0 	0.0 	0.0 	0.0 	1	1.0000 	0.0000 	230.0 	2	1.0600 	0.9400;
    129	1	0.0 	0.0 	0.0 	0.0 	1	1.0000 	0.0000 	230.0 	2	1.0600 	0.9400;
    130	1	0.0 	0.0 	0.0 	0.0 	1	1.0000 	0.0000 	230.0 	2	1.0600 	0.9400;
    131	2	11.9 	6.3 	0.0 	0.0 	1	1.0000 	0.0000 	230.0 	2	1.0600 	0.9400;
    132	2	0.0 	0.0 	0.0 	0.0 	1	1.0000 	0.0000 	230.0 	2	1.0600 	0.9400;
    133	1	49.0 	3.5 	0.0 	34.5 	1	1.0000 	0.0000 	115.0 	2	1.0600 	0.9400;
    134	1	140.0 	35.0 	0.0 	0.0 	1	1.0000 	0.0000 	230.0 	2	1.0600 	0.9400;
    135	2	52.5 	35.0 	0.0 	0.0 	1	1.0000 	0.0000 	115.0 	2	1.0600 	0.9400;
    136	1	86.5 	-17.0 	0.0 	0.0 	1	1.0000 	0.0000 	230.0 	2	1.0600 	0.9400;
    137	1	0.0 	0.0 	0.0 	0.0 	1	1.0000 	0.0000 	230.0 	2	1.0600 	0.9400;
    138	1	23.1 	11.6 	0.0 	0.0 	1	1.0000 	0.0000 	230.0 	2	1.0600 	0.9400;
    139	1	0.0 	0.0 	0.0 	0.0 	1	1.0000 	0.0000 	230.0 	2	1.0600 	0.9400;
    140	1	24.5 	10.5 	0.0 	0.0 	1	1.0000 	0.0000 	230.0 	2	1.0600 	0.9400;
    141	1	59.5 	16.8 	0.0 	0.0 	1	1.0000 	0.0000 	230.0 	2	1.0600 	0.9400;
    142	1	0.0 	0.3 	0.0 	0.0 	1	1.0000 	0.0000 	230.0 	2	1.0600 	0.9400;
    143	1	0.0 	0.0 	0.0 	-212.0 	1	1.0000 	0.0000 	230.0 	2	1.0600 	0.9400;
    144	1	0.0 	0.0 	0.0 	0.0 	1	1.0000 	0.0000 	230.0 	2	1.0600 	0.9400;
    145	1	0.0 	0.0 	0.0 	-103.0 	1	1.0000 	0.0000 	230.0 	2	1.0600 	0.9400;
    146	1	209.9 	67.0 	0.0 	0.0 	1	1.0000 	0.0000 	230.0 	2	1.0600 	0.9400;
    147	1	0.0 	0.0 	0.0 	0.0 	1	1.0000 	0.0000 	230.0 	2	1.0600 	0.9400;
    148	1	0.0 	0.0 	0.0 	0.0 	1	1.0000 	0.0000 	230.0 	2	1.0600 	0.9400;
    149	2	337.3 	143.5 	0.0 	0.0 	1	1.0000 	0.0000 	115.0 	2	1.0600 	0.9400;
    150	2	534.5 	203.8 	0.0 	0.0 	1	1.0000 	0.0000 	115.0 	2	1.0600 	0.9400;
    151	1	18.6 	0.0 	0.0 	0.0 	1	1.0000 	0.0000 	115.0 	2	1.0600 	0.9400;
    152	1	114.5 	30.1 	0.0 	53.0 	1	1.0000 	0.0000 	115.0 	2	1.0600 	0.9400;
    153	1	0.0 	0.0 	0.0 	0.0 	1	1.0000 	0.0000 	115.0 	2	1.0600 	0.9400;
    154	1	123.2 	58.1 	0.0 	0.0 	1	1.0000 	0.0000 	115.0 	2	1.0600 	0.9400;
    155	2	3.5 	2.8 	0.0 	0.0 	1	1.0000 	0.0000 	115.0 	2	1.0600 	0.9400;
    156	2	19.6 	8.4 	0.0 	0.0 	1	1.0000 	0.0000 	115.0 	2	1.0600 	0.9400;
    157	1	299.2 	121.5 	0.0 	0.0 	1	1.0000 	0.0000 	115.0 	2	1.0600 	0.9400;
    158	1	51.8 	20.3 	0.0 	45.0 	1	1.0000 	0.0000 	115.0 	2	1.0600 	0.9400;
    159	1	48.7 	34.5 	0.0 	0.0 	1	1.0000 	0.0000 	115.0 	2	1.0600 	0.9400;
    160	1	51.4 	0.0 	0.0 	0.0 	1	1.0000 	0.0000 	230.0 	2	1.0600 	0.9400;
    161	1	168.5 	62.3 	0.0 	0.0 	1	1.0000 	0.0000 	230.0 	2	1.0600 	0.9400;
    162	1	28.0 	2.8 	0.0 	0.0 	1	1.0000 	0.0000 	115.0 	2	1.0600 	0.9400;
    163	1	95.8 	11.6 	0.0 	0.0 	1	1.0000 	0.0000 	230.0 	2	1.0600 	0.9400;
    164	2	0.0 	0.0 	0.0 	0.0 	1	1.0000 	0.0000 	230.0 	2	1.0600 	0.9400;
    165	2	41.9 	17.0 	0.0 	0.0 	1	1.0000 	0.0000 	230.0 	2	1.0600 	0.9400;
    166	2	41.9 	17.0 	0.0 	0.0 	1	1.0000 	0.0000 	230.0 	2	1.0600 	0.9400;
    167	1	127.8 	30.5 	0.0 	0.0 	1	1.0000 	0.0000 	230.0 	2	1.0600 	0.9400;
    168	1	4.9 	1.4 	0.0 	0.0 	1	1.0000 	0.0000 	66.0 	3	1.0600 	0.9400;
    169	2	0.0 	0.0 	0.0 	-150.0 	1	1.0000 	0.0000 	345.0 	3	1.0600 	0.9400;
    170	2	342.3 	37.1 	0.0 	0.0 	1	1.0000 	0.0000 	230.0 	3	1.0600 	0.9400;
    171	1	560.0 	50.4 	0.0 	0.0 	1	1.0000 	0.0000 	230.0 	3	1.0600 	0.9400;
    172	1	0.0 	0.0 	0.0 	0.0 	1	1.0000 	0.0000 	66.0 	3	1.0600 	0.9400;
    173	1	0.0 	0.0 	0.0 	0.0 	1	1.0000 	0.0000 	345.0 	3	1.0600 	0.9400;
    174	1	0.0 	0.0 	0.0 	0.0 	1	1.0000 	0.0000 	345.0 	3	1.0600 	0.9400;
    175	1	7.0 	2.1 	0.0 	0.0 	1	1.0000 	0.0000 	115.0 	3	1.0600 	0.9400;
    176	1	30.1 	9.8 	0.0 	0.0 	1	1.0000 	0.0000 	115.0 	3	1.0600 	0.9400;
    177	2	44.8 	14.7 	0.0 	0.0 	1	1.0000 	0.0000 	115.0 	3	1.0600 	0.9400;
    178	1	24.5 	8.4 	0.0 	0.0 	1	1.0000 	0.0000 	115.0 	3	1.0600 	0.9400;
    179	1	18.9 	8.4 	0.0 	0.0 	1	1.0000 	0.0000 	115.0 	3	1.0600 	0.9400;
    180	1	28.7 	9.8 	0.0 	0.0 	1	1.0000 	0.0000 	66.0 	1	1.0600 	0.9400;
    181	1	26.6 	9.1 	0.0 	0.0 	1	1.0000 	0.0000 	66.0 	3	1.0600 	0.9400;
    182	1	29.4 	9.8 	0.0 	0.0 	1	1.0000 	0.0000 	115.0 	3	1.0600 	0.9400;
    183	1	50.4 	16.8 	0.0 	0.0 	1	1.0000 	0.0000 	66.0 	3	1.0600 	0.9400;
    184	1	0.0 	-3.5 	0.0 	0.0 	1	1.0000 	0.0000 	66.0 	3	1.0600 	0.9400;
    185	1	8.4 	1.4 	0.0 	0.0 	1	1.0000 	0.0000 	66.0 	3	1.0600 	0.9400;
    186	1	-14.7 	-9.9 	0.0 	0.0 	1	1.0000 	0.0000 	66.0 	1	1.0600 	0.9400;
    187	1	4.9 	1.4 	0.0 	0.0 	1	1.0000 	0.0000 	66.0 	3	1.0600 	0.9400;
    188	1	26.6 	9.1 	0.0 	0.0 	1	1.0000 	0.0000 	66.0 	3	1.0600 	0.9400;
    189	1	0.0 	0.0 	0.0 	0.0 	1	1.0000 	0.0000 	115.0 	3	1.0600 	0.9400;
    190	1	67.2 	4.9 	0.0 	0.0 	1	1.0000 	0.0000 	115.0 	3	1.0600 	0.9400;
    191	1	0.0 	0.0 	0.0 	0.0 	1	1.0000 	0.0000 	138.0 	3	1.0600 	0.9400;
    192	2	0.0 	0.0 	0.0 	0.0 	1	1.0000 	0.0000 	16.5 	3	1.0600 	0.9400;
    193	1	15.4 	11.2 	0.0 	0.0 	1	1.0000 	0.0000 	138.0 	3	1.0600 	0.9400;
    194	1	32.9 	18.2 	0.0 	0.0 	1	1.0000 	0.0000 	138.0 	3	1.0600 	0.9400;
    195	1	123.2 	73.5 	0.0 	0.0 	1	1.0000 	0.0000 	138.0 	3	1.0600 	0.9400;
    196	1	70.0 	52.5 	0.0 	0.0 	1	1.0000 	0.0000 	138.0 	3	1.0600 	0.9400;
    197	1	91.7 	67.2 	0.0 	0.0 	1	1.0000 	0.0000 	138.0 	3	1.0600 	0.9400;
    198	1	0.0 	0.0 	0.0 	0.0 	1	1.0000 	0.0000 	345.0 	3	1.0600 	0.9400;
    199	2	199.5 	70.0 	0.0 	0.0 	1	1.0000 	0.0000 	138.0 	3	1.0600 	0.9400;
    200	2	119.7 	49.0 	0.0 	0.0 	1	1.0000 	0.0000 	138.0 	3	1.0600 	0.9400;
    201	2	229.6 	131.6 	0.0 	0.0 	1	1.0000 	0.0000 	20.0 	3	1.0600 	0.9400;
    202	1	299.6 	162.4 	0.0 	0.0 	1	1.0000 	0.0000 	138.0 	3	1.0600 	0.9400;
    203	1	121.1 	69.3 	0.0 	0.0 	1	1.0000 	0.0000 	230.0 	3	1.0600 	0.9400;
    204	1	287.0 	28.0 	0.0 	0.0 	1	1.0000 	0.0000 	230.0 	3	1.0600 	0.9400;
    205	1	0.0 	0.0 	0.0 	0.0 	1	1.0000 	0.0000 	230.0 	3	1.0600 	0.9400;
    206	2	376.6 	258.3 	0.0 	0.0 	1	1.0000 	0.0000 	27.0 	3	1.0600 	0.9400;
    207	1	156.1 	103.6 	0.0 	0.0 	1	1.0000 	0.0000 	138.0 	3	1.0600 	0.9400;
    208	1	67.2 	32.2 	0.0 	0.0 	1	1.0000 	0.0000 	138.0 	3	1.0600 	0.9400;
    209	2	0.0 	0.0 	0.0 	0.0 	1	1.0000 	0.0000 	20.0 	3	1.0600 	0.9400;
    210	1	111.3 	74.9 	0.0 	-300.0 	1	1.0000 	0.0000 	345.0 	3	1.0600 	0.9400;
    211	1	313.6 	100.1 	0.0 	0.0 	1	1.0000 	0.0000 	138.0 	3	1.0600 	0.9400;
    212	2	282.8 	148.4 	0.0 	0.0 	1	1.0000 	0.0000 	66.0 	3	1.0600 	0.9400;
    213	1	400.4 	170.8 	0.0 	0.0 	1	1.0000 	0.0000 	138.0 	3	1.0600 	0.9400;
    214	1	188.3 	109.9 	0.0 	0.0 	1	1.0000 	0.0000 	138.0 	3	1.0600 	0.9400;
    215	2	0.0 	0.0 	0.0 	0.0 	1	1.0000 	0.0000 	20.0 	3	1.0600 	0.9400;
    216	1	0.0 	0.0 	0.0 	0.0 	1	1.0000 	0.0000 	345.0 	3	1.0600 	0.9400;
    217	2	178.5 	104.3 	0.0 	-150.0 	1	1.0000 	0.0000 	138.0 	3	1.0600 	0.9400;
    218	2	0.0 	0.0 	0.0 	0.0 	1	1.0000 	0.0000 	138.0 	3	1.0600 	0.9400;
    219	1	0.0 	0.0 	0.0 	-140.0 	1	1.0000 	0.0000 	230.0 	3	1.0600 	0.9400;
    220	2	0.0 	0.0 	0.0 	0.0 	1	1.0000 	0.0000 	20.0 	3	1.0600 	0.9400;
    221	2	0.0 	0.0 	0.0 	0.0 	1	1.0000 	0.0000 	138.0 	3	1.0600 	0.9400;
    222	2	5.6 	2.1 	0.0 	0.0 	1	1.0000 	0.0000 	66.0 	3	1.0600 	0.9400;
    223	1	0.0 	0.0 	0.0 	0.0 	1	1.0000 	0.0000 	66.0 	3	1.0600 	0.9400;
    224	1	42.7 	21.0 	0.0 	0.0 	1	1.0000 	0.0000 	66.0 	3	1.0600 	0.9400;
    225	1	53.9 	23.1 	0.0 	0.0 	1	1.0000 	0.0000 	66.0 	3	1.0600 	0.9400;
    226	1	42.7 	21.0 	0.0 	0.0 	1	1.0000 	0.0000 	66.0 	3	1.0600 	0.9400;
    227	1	20.3 	9.8 	0.0 	45.6 	1	1.0000 	0.0000 	66.0 	3	1.0600 	0.9400;
    228	1	20.3 	9.8 	0.0 	0.0 	1	1.0000 	0.0000 	66.0 	3	1.0600 	0.9400;
    229	1	-16.1 	-11.9 	0.0 	0.0 	1	1.0000 	0.0000 	66.0 	3	1.0600 	0.9400;
    230	1	-23.2 	-20.6 	0.0 	0.0 	1	1.0000 	0.0000 	230.0 	3	1.0600 	0.9400;
    231	1	81.1 	-16.8 	0.0 	0.0 	1	1.0000 	0.0000 	230.0 	1	1.0600 	0.9400;
    232	1	1.7 	-8.8 	0.0 	0.0 	1	1.0000 	0.0000 	115.0 	1	1.0600 	0.9400;
    233	1	1.7 	-2.7 	0.0 	0.0 	1	1.0000 	0.0000 	115.0 	1	1.0600 	0.9400;
    234	1	-10.4 	18.6 	0.0 	0.0 	1	1.0000 	0.0000 	230.0 	1	1.0600 	0.9400;
    235	1	17.3 	-0.8 	0.0 	0.0 	1	1.0000 	0.0000 	115.0 	1	1.0600 	0.9400;
    236	1	101.7 	-24.4 	0.0 	0.0 	1	1.0000 	0.0000 	115.0 	1	1.0600 	0.9400;
    237	1	19.7 	-14.4 	0.0 	0.0 	1	1.0000 	0.0000 	115.0 	1	1.0600 	0.9400;
    238	1	9.8 	1.8 	0.0 	0.0 	1	1.0000 	0.0000 	115.0 	1	1.0600 	0.9400;
    239	1	-7.8 	-1.0 	0.0 	0.0 	1	1.0000 	0.0000 	115.0 	1	1.0600 	0.9400;
    240	1	35.4 	12.2 	0.0 	0.0 	1	1.0000 	0.0000 	230.0 	1	1.0600 	0.9400;
    241	1	20.7 	0.4 	0.0 	0.0 	1	1.0000 	0.0000 	115.0 	1	1.0600 	0.9400;
    242	1	-79.6 	53.7 	0.0 	0.0 	1	1.0000 	0.0000 	345.0 	3	1.0600 	0.9400;
    243	1	70.2 	20.4 	0.0 	0.0 	1	1.0000 	0.0000 	86.0 	2	1.0600 	0.9400;
    244	1	-70.0 	23.9 	0.0 	0.0 	1	1.0000 	0.0000 	86.0 	2	1.0600 	0.9400;
    245	1	0.0 	0.0 	0.0 	0.0 	1	1.0000 	0.0000 	115.0 	2	1.0600 	0.9400;
    246	1	0.0 	0.0 	0.0 	0.0 	1	1.0000 	0.0000 	115.0 	3	1.0600 	0.9400;
    247	2	0.0 	0.0 	0.0 	0.0 	1	1.0000 	0.0000 	13.8 	1	1.0600 	0.9400;
    248	2	0.0 	0.0 	0.0 	0.0 	1	1.0000 	0.0000 	13.8 	1	1.0600 	0.9400;
    249	2	0.0 	0.0 	0.0 	0.0 	1	1.0000 	0.0000 	13.8 	1	1.0600 	0.9400;
    250	2	0.0 	0.0 	0.0 	0.0 	1	1.0000 	0.0000 	13.8 	1	1.0600 	0.9400;
    251	2	0.0 	0.0 	0.0 	0.0 	1	1.0000 	0.0000 	13.8 	1	1.0600 	0.9400;
    252	2	0.0 	0.0 	0.0 	0.0 	1	1.0000 	0.0000 	13.8 	1	1.0600 	0.9400;
    253	2	0.0 	0.0 	0.0 	0.0 	1	1.0000 	0.0000 	13.8 	1	1.0600 	0.9400;
    254	2	0.0 	0.0 	0.0 	0.0 	1	1.0000 	0.0000 	13.8 	1	1.0600 	0.9400;
    255	2	0.0 	0.0 	0.0 	0.0 	1	1.0000 	0.0000 	20.0 	1	1.0600 	0.9400;
    256	2	0.0 	0.0 	0.0 	0.0 	1	1.0000 	0.0000 	13.8 	1	1.0600 	0.9400;
    257	3	0.0 	0.0 	0.0 	0.0 	1	1.0000 	0.0000 	13.8 	1	1.0600 	0.9400;
    258	2	0.0 	0.0 	0.0 	0.0 	1	1.0000 	0.0000 	13.8 	1	1.0600 	0.9400;
    259	2	0.0 	0.0 	0.0 	0.0 	1	1.0000 	0.0000 	13.8 	1	1.0600 	0.9400;
    260	2	0.0 	0.0 	0.0 	0.0 	1	1.0000 	0.0000 	13.8 	1	1.0600 	0.9400;
    261	2	0.0 	0.0 	0.0 	0.0 	1	1.0000 	0.0000 	13.8 	1	1.0600 	0.9400;
    262	2	0.0 	0.0 	0.0 	0.0 	1	1.0000 	0.0000 	13.8 	1	1.0600 	0.9400;
    263	2	0.0 	0.0 	0.0 	0.0 	1	1.0000 	0.0000 	13.8 	2	1.0600 	0.9400;
    264	2	0.0 	0.0 	0.0 	0.0 	1	1.0000 	0.0000 	13.8 	2	1.0600 	0.9400;
    265	2	0.0 	0.0 	0.0 	0.0 	1	1.0000 	0.0000 	13.8 	2	1.0600 	0.9400;
    266	1	0.0 	0.0 	0.0 	0.0 	1	1.0000 	0.0000 	115.0 	9	1.0600 	0.9400;
    267	2	2.9 	0.0 	0.0 	0.0 	1	1.0000 	0.0000 	6.6 	9	1.0600 	0.9400;
    268	1	1.9 	0.7 	0.1 	2.4 	1	1.0000 	0.0000 	6.6 	9	1.0600 	0.9400;
    269	1	0.6 	0.2 	0.0 	0.0 	1	1.0000 	0.0000 	6.6 	9	1.0600 	0.9400;
    270	1	0.0 	0.0 	0.0 	0.0 	1	1.0000 	0.0000 	115.0 	9	1.0600 	0.9400;
    271	1	0.0 	0.0 	0.0 	0.0 	1	1.0000 	0.0000 	6.6 	9	1.0600 	0.9400;
    272	1	0.0 	0.0 	0.0 	0.0 	1	1.0000 	0.0000 	6.6 	9	1.0600 	0.9400;
    273	1	0.0 	0.0 	0.0 	0.0 	1	1.0000 	0.0000 	6.6 	9	1.0600 	0.9400;
    274	1	3.3 	1.1 	0.0 	0.0 	1	1.0000 	0.0000 	6.6 	9	1.0600 	0.9400;
    275	1	1.1 	0.4 	0.1 	0.0 	1	1.0000 	0.0000 	0.6 	9	1.0600 	0.9400;
    276	1	0.0 	0.0 	0.0 	0.0 	1	1.0000 	0.0000 	6.6 	9	1.0600 	0.9400;
    277	1	0.9 	0.3 	0.1 	0.0 	1	1.0000 	0.0000 	0.6 	9	1.0600 	0.9400;
    278	1	0.3 	0.1 	0.0 	0.0 	1	1.0000 	0.0000 	0.6 	9	1.0600 	0.9400;
    279	1	0.3 	0.1 	0.0 	0.0 	1	1.0000 	0.0000 	0.6 	9	1.0600 	0.9400;
    280	1	1.3 	0.4 	0.1 	0.0 	1	1.0000 	0.0000 	0.6 	9	1.0600 	0.9400;
    281	1	1.0 	0.3 	0.1 	0.0 	1	1.0000 	0.0000 	0.6 	9	1.0600 	0.9400;
    282	1	1.3 	0.5 	0.1 	0.0 	1	1.0000 	0.0000 	0.6 	9	1.0600 	0.9400;
    283	1	1.1 	0.4 	0.1 	1.7 	1	1.0000 	0.0000 	0.6 	9	1.0600 	0.9400;
    284	1	1.2 	0.4 	0.1 	0.0 	1	1.0000 	0.0000 	0.6 	9	1.0600 	0.9400;
    285	1	2.1 	0.7 	0.0 	0.0 	1	1.0000 	0.0000 	2.3 	9	1.0600 	0.9400;
    286	1	1.3 	0.4 	0.1 	0.0 	1	1.0000 	0.0000 	0.6 	9	1.0600 	0.9400;
    287	1	1.8 	0.6 	0.1 	0.0 	1	1.0000 	0.0000 	0.6 	9	1.0600 	0.9400;
    288	1	0.7 	0.2 	0.1 	0.0 	1	1.0000 	0.0000 	0.6 	9	1.0600 	0.9400;
    289	1	0.6 	0.2 	0.0 	0.0 	1	1.0000 	0.0000 	0.6 	9	1.0600 	0.9400;
    290	1	1.1 	0.4 	0.0 	0.0 	1	1.0000 	0.0000 	2.3 	9	1.0600 	0.9400;
    291	1	0.0 	0.0 	0.0 	0.0 	1	1.0000 	0.0000 	6.6 	9	1.0600 	0.9400;
    292	2	25.1 	0.0 	0.0 	0.0 	1	1.0000 	0.0000 	13.8 	9	1.0600 	0.9400;
    293	1	21.0 	16.1 	0.0 	0.0 	1	1.0000 	0.0000 	13.8 	9	1.0600 	0.9400;
    294	2	18.5 	0.0 	0.0 	0.0 	1	1.0000 	0.0000 	13.8 	9	1.0600 	0.9400;
    295	2	0.0 	0.0 	0.0 	0.0 	1	1.0000 	0.0000 	13.8 	9	1.0600 	0.9400;
    296	2	0.0 	0.0 	0.0 	0.0 	1	1.0000 	0.0000 	13.8 	9	1.0600 	0.9400;
    297	1	0.7 	0.2 	0.1 	0.0 	1	1.0000 	0.0000 	0.6 	9	1.0600 	0.9400;
    298	1	0.7 	0.2 	0.1 	0.0 	1	1.0000 	0.0000 	0.6 	9	1.0600 	0.9400;
    299	1	2.7 	0.9 	0.0 	0.0 	1	1.0000 	0.0000 	6.6 	9	1.0600 	0.9400;
    300	1	0.8 	0.3 	0.1 	0.0 	1	1.0000 	0.0000 	2.3 	9	1.0600 	0.9400;
];

%% generator data
%	bus	Pg	Qg	Qmax	Qmin	Vg	mBase	status	Pmax	Pmin
mpc.gen = [
    8	0.0 	0.0 	150.0 	-10.0 	1.0 	100.0 	1	0.0 	0.0 ;
    10	0.0 	0.0 	140.0 	-20.0 	1.0 	100.0 	1	0.0 	0.0 ;
    19	0.0 	0.0 	875.0 	-60.0 	1.0 	100.0 	1	0.0 	0.0 ;
    55	0.0 	0.0 	80.0 	-25.0 	1.0 	100.0 	1	0.0 	0.0 ;
    63	0.0 	23.5 	140.0 	12.0 	1.0 	100.0 	1	0.0 	0.0 ;
    69	724.0 	0.0 	240.0 	-240.0 	1.0 	100.0 	1	1448.0 	0.0 ;
    76	92.5 	41.0 	93.0 	-33.0 	1.0 	100.0 	1	370.0 	0.0 ;
    77	180.0 	0.0 	153.0 	-153.0 	1.0 	100.0 	1	720.0 	0.0 ;
    80	46.5 	8.5 	47.0 	-30.0 	1.0 	100.0 	1	186.0 	0.0 ;
    88	98.5 	26.5 	77.0 	-72.0 	1.0 	100.0 	1	394.0 	0.0 ;
    98	1020.5 	260.5 	1321.0 	-500.0 	1.0 	100.0 	1	2041.0 	0.0 ;
    103	160.5 	30.0 	200.0 	-60.0 	1.0 	100.0 	1	360.0 	0.0 ;
    104	0.0 	87.5 	350.0 	-25.0 	1.0 	100.0 	1	0.0 	0.0 ;
    117	0.0 	112.5 	350.0 	-125.0 	1.0 	100.0 	1	0.0 	0.0 ;
    120	148.5 	12.5 	75.0 	-50.0 	1.0 	100.0 	1	330.0 	0.0 ;
    122	400.0 	100.0 	300.0 	-300.0 	1.0 	100.0 	1	800.0 	0.0 ;
    125	45.5 	10.0 	60.0 	-15.0 	1.0 	100.0 	1	91.0 	0.0 ;
    126	160.0 	25.0 	100.0 	-150.0 	1.0 	100.0 	1	320.0 	0.0 ;
    128	138.5 	12.5 	50.0 	-25.0 	1.0 	100.0 	1	277.0 	0.0 ;
    131	303.0 	62.5 	175.0 	-150.0 	1.0 	100.0 	1	606.0 	0.0 ;
    132	121.0 	20.0 	90.0 	-75.0 	1.0 	100.0 	1	242.0 	0.0 ;
    135	0.0 	2.5 	60.0 	-90.0 	1.0 	100.0 	1	0.0 	0.0 ;
    149	165.0 	25.0 	350.0 	-40.0 	1.0 	100.0 	1	330.0 	0.0 ;
    150	0.0 	50.0 	500.0 	-50.0 	1.0 	100.0 	1	0.0 	0.0 ;
    155	139.0 	22.5 	90.0 	-45.0 	1.0 	100.0 	1	278.0 	0.0 ;
    156	62.5 	10.0 	140.0 	-15.0 	1.0 	100.0 	1	125.0 	0.0 ;
    164	125.0 	15.0 	80.0 	-50.0 	1.0 	100.0 	1	250.0 	0.0 ;
    165	1232.5 	150.0 	400.0 	-100.0 	1.0 	100.0 	1	2465.0 	0.0 ;
    166	812.0 	150.0 	400.0 	-100.0 	1.0 	100.0 	1	1624.0 	0.0 ;
    169	257.5 	0.0 	258.0 	-774.0 	1.0 	100.0 	1	580.0 	0.0 ;
    170	1070.0 	0.0 	1000.0 	-1000.0 	1.0 	100.0 	1	2140.0 	0.0 ;
    177	215.0 	0.0 	215.0 	-215.0 	1.0 	100.0 	1	500.0 	0.0 ;
    192	144.0 	0.0 	144.0 	-144.0 	1.0 	100.0 	1	350.0 	0.0 ;
    199	230.0 	0.0 	60.0 	-180.0 	1.0 	100.0 	1	460.0 	0.0 ;
    200	277.0 	0.0 	400.0 	-277.0 	1.0 	100.0 	1	554.0 	0.0 ;
    201	261.5 	0.0 	262.0 	-262.0 	1.0 	100.0 	1	523.0 	0.0 ;
    206	218.0 	0.0 	320.0 	-218.0 	1.0 	100.0 	1	436.0 	0.0 ;
    209	229.0 	0.0 	229.0 	-229.0 	1.0 	100.0 	1	458.0 	0.0 ;
    212	170.5 	0.0 	230.0 	-171.0 	1.0 	100.0 	1	380.0 	0.0 ;
    215	440.5 	0.0 	300.0 	-300.0 	1.0 	100.0 	1	881.0 	0.0 ;
    217	133.5 	0.0 	400.0 	-134.0 	1.0 	100.0 	1	300.0 	0.0 ;
    218	310.5 	0.0 	311.0 	-311.0 	1.0 	100.0 	1	621.0 	0.0 ;
    220	563.5 	0.0 	564.0 	-564.0 	1.0 	100.0 	1	1127.0 	0.0 ;
    221	106.0 	70.0 	150.0 	40.0 	1.0 	100.0 	1	212.0 	0.0 ;
    222	171.0 	60.0 	80.0 	10.0 	1.0 	100.0 	1	342.0 	0.0 ;
    247	284.0 	0.0 	210.0 	-210.0 	1.0 	100.0 	1	568.0 	0.0 ;
    248	335.0 	0.0 	280.0 	-280.0 	1.0 	100.0 	1	670.0 	0.0 ;
    249	700.5 	0.0 	540.0 	-420.0 	1.0 	100.0 	1	1401.0 	0.0 ;
    250	334.0 	0.0 	525.0 	-100.0 	1.0 	100.0 	1	668.0 	0.0 ;
    251	313.0 	0.0 	224.0 	-224.0 	1.0 	100.0 	1	626.0 	0.0 ;
    252	245.0 	122.5 	300.0 	0.0 	1.0 	100.0 	1	490.0 	0.0 ;
    253	110.0 	55.0 	110.0 	-170.0 	1.0 	100.0 	1	440.0 	0.0 ;
    254	271.5 	0.0 	224.0 	-224.0 	1.0 	100.0 	1	1086.0 	0.0 ;
    255	290.0 	0.0 	200.0 	-200.0 	1.0 	100.0 	1	580.0 	0.0 ;
    256	66.0 	21.0 	70.0 	-30.0 	1.0 	100.0 	1	132.0 	0.0 ;
    257	359.0 	5.0 	50.0 	0.0 	1.0 	100.0 	1	0.0 	0.0 ;
    258	79.0 	12.5 	140.0 	0.0 	1.0 	100.0 	1	158.0 	0.0 ;
    259	167.0 	0.0 	90.0 	-90.0 	1.0 	100.0 	1	334.0 	0.0 ;
    260	878.5 	0.0 	525.0 	-150.0 	1.0 	100.0 	1	1757.0 	0.0 ;
    261	284.0 	75.0 	200.0 	0.0 	1.0 	100.0 	1	568.0 	0.0 ;
    262	101.5 	43.5 	87.0 	0.0 	1.0 	100.0 	1	203.0 	0.0 ;
    263	863.0 	250.0 	600.0 	-100.0 	1.0 	100.0 	1	1726.0 	0.0 ;
    264	1012.5 	100.0 	325.0 	-125.0 	1.0 	100.0 	1	2025.0 	0.0 ;
    265	312.0 	50.0 	300.0 	-200.0 	1.0 	100.0 	1	624.0 	0.0 ;
    267	0.0 	0.0 	17.4 	-17.4 	1.0 	100.0 	1	0.0 	0.0 ;
    292	0.0 	0.0 	20.0 	-17.4 	1.0 	100.0 	1	0.0 	0.0 ;
    294	0.0 	0.0 	20.0 	-12.8 	1.0 	100.0 	1	0.0 	0.0 ;
    295	42.0 	0.0 	280.0 	-38.0 	1.0 	100.0 	1	168.0 	0.0 ;
    296	18.5 	0.0 	52.5 	-6.0 	1.0 	100.0 	1	0.0 	0.0 ;
];

%% generator cost data
%	2	startup	shutdown	n	c(n-1)	...	c0
mpc.gencost = [
    2	0	0	3	0.0100 	40.0000 	0.0000;
    2	0	0	3	0.0100 	40.0000 	0.0000;
    2	0	0	3	0.0100 	40.0000 	0.0000;
    2	0	0	3	0.0100 	40.0000 	0.0000;
    2	0	0	3	0.0100 	40.0000 	0.0000;
    2	0	0	3	0.0267 	20.0000 	0.0000;
    2	0	0	3	0.0645 	20.0000 	0.0000;
    2	0	0	3	0.0345 	20.0000 	0.0000;
    2	0	0	3	0.1471 	20.0000 	0.0000;
    2	0	0	3	0.0855 	20.0000 	0.0000;
    2	0	0	3	0.0052 	20.0000 	0.0000;
    2	0	0	3	0.0417 	20.0000 	0.0000;
    2	0	0	3	0.0100 	40.0000 	0.0000;
    2	0	0	3	0.0100 	40.0000 	0.0000;
    2	0	0	3	0.0356 	20.0000 	0.0000;
    2	0	0	3	0.0144 	20.0000 	0.0000;
    2	0	0	3	0.1190 	20.0000 	0.0000;
    2	0	0	3	0.0461 	20.0000 	0.0000;
    2	0	0	3	0.0971 	20.0000 	0.0000;
    2	0	0	3	0.0269 	20.0000 	0.0000;
    2	0	0	3	0.0463 	20.0000 	0.0000;
    2	0	0	3	0.0100 	40.0000 	0.0000;
    2	0	0	3	0.0488 	20.0000 	0.0000;
    2	0	0	3	0.0100 	40.0000 	0.0000;
    2	0	0	3	0.0439 	20.0000 	0.0000;
    2	0	0	3	0.1190 	20.0000 	0.0000;
    2	0	0	3	0.0500 	20.0000 	0.0000;
    2	0	0	3	0.0083 	20.0000 	0.0000;
    2	0	0	3	0.0083 	20.0000 	0.0000;
    2	0	0	3	0.0211 	20.0000 	0.0000;
    2	0	0	3	0.0051 	20.0000 	0.0000;
    2	0	0	3	0.0236 	20.0000 	0.0000;
    2	0	0	3	0.0368 	20.0000 	0.0000;
    2	0	0	3	0.1000 	20.0000 	0.0000;
    2	0	0	3	0.0222 	20.0000 	0.0000;
    2	0	0	3	0.0400 	20.0000 	0.0000;
    2	0	0	3	0.0330 	20.0000 	0.0000;
    2	0	0	3	0.0290 	20.0000 	0.0000;
    2	0	0	3	0.0333 	20.0000 	0.0000;
    2	0	0	3	0.0167 	20.0000 	0.0000;
    2	0	0	3	0.0400 	20.0000 	0.0000;
    2	0	0	3	0.0182 	20.0000 	0.0000;
    2	0	0	3	0.0174 	20.0000 	0.0000;
    2	0	0	3	0.0588 	20.0000 	0.0000;
    2	0	0	3	0.1190 	20.0000 	0.0000;
    2	0	0	3	0.0214 	20.0000 	0.0000;
    2	0	0	3	0.0161 	20.0000 	0.0000;
    2	0	0	3	0.0083 	20.0000 	0.0000;
    2	0	0	3	0.0427 	20.0000 	0.0000;
    2	0	0	3	0.0269 	20.0000 	0.0000;
    2	0	0	3	0.0303 	20.0000 	0.0000;
    2	0	0	3	0.0541 	20.0000 	0.0000;
    2	0	0	3	0.0244 	20.0000 	0.0000;
    2	0	0	3	0.0200 	20.0000 	0.0000;
    2	0	0	3	0.2703 	20.0000 	0.0000;
    2	0	0	3	0.0100 	40.0000 	0.0000;
    2	0	0	3	0.2222 	20.0000 	0.0000;
    2	0	0	3	0.0606 	20.0000 	0.0000;
    2	0	0	3	0.0250 	20.0000 	0.0000;
    2	0	0	3	0.0250 	20.0000 	0.0000;
    2	0	0	3	0.0862 	20.0000 	0.0000;
    2	0	0	3	0.0077 	20.0000 	0.0000;
    2	0	0	3	0.0143 	20.0000 	0.0000;
    2	0	0	3	0.0181 	20.0000 	0.0000;
    2	0	0	3	0.0100 	40.0000 	0.0000;
    2	0	0	3	0.0100 	40.0000 	0.0000;
    2	0	0	3	0.0100 	40.0000 	0.0000;
    2	0	0	3	0.2000 	20.0000 	0.0000;
    2	0	0	3	1.2500 	20.0000 	0.0000;
];

%% branch data
%	fbus	tbus	r	x	b	rateA	rateB	rateC	ratio	angle	status	angmin	angmax
mpc.branch = [
     31	266	0.00006 	0.00046 	0.0000 	9900.0 	63230.0 	63230.0 	1.0 	0.0 	1	-360.0 	360.0;
    266	270	0.00080 	0.00348 	0.0000 	8215.0 	8215.0 	8215.0 	0.0 	0.0 	1	-360.0 	360.0;
    266	271	0.02439 	0.43682 	0.0000 	68.0 	68.0 	68.0 	1.0 	0.0 	1	-360.0 	360.0;